/*---------------------------------------------------------------------------*\
  =========                 |
  \\      /  F ield         | OpenFOAM: The Open Source CFD Toolbox
   \\    /   O peration     | Website:  https://openfoam.org
    \\  /    A nd           | Version:  7
     \\/     M anipulation  |
\*---------------------------------------------------------------------------*/
Build  : 7-1ff648926f77
Exec   : interFoam
Date   : Mar 12 2020
Time   : 12:34:04
Host   : "DESKTOP-DLLIBLA"
PID    : 361
I/O    : uncollated
Case   : /home/lab-user/OpenFOAM/lab-user-7/run/droplet_stationalSurface_impact/caseBackup
nProcs : 1
sigFpe : Enabling floating point exception trapping (FOAM_SIGFPE).
fileModificationChecking : Monitoring run-time modified files using timeStampMaster (fileModificationSkew 10)
allowSystemOperations : Allowing user-supplied system call operations

// * * * * * * * * * * * * * * * * * * * * * * * * * * * * * * * * * * * * * //
Create time

Create mesh for time = 0


PIMPLE: No convergence criteria found


PIMPLE: Operating solver in transient mode with 1 outer corrector
PIMPLE: Operating solver in PISO mode


Reading field p_rgh

Reading field U

Reading/calculating face flux field phi

Reading transportProperties

Selecting incompressible transport model Newtonian
Selecting incompressible transport model Newtonian
Selecting turbulence model type laminar
Selecting laminar stress model Stokes

Reading g

Reading hRef
Calculating field g.h

No MRF models present

No finite volume options present
DICPCG:  Solving for pcorr, Initial residual = 1, Final residual = 9.91989e-06, No Iterations 315
time step continuity errors : sum local = 5.95193e-10, global = 1.9229e-12, cumulative = 1.9229e-12
Courant Number mean: 0.00102209 max: 0.483817

Starting time loop

Courant Number mean: 0.00100205 max: 0.47433
Interface Courant Number mean: 0 max: 0
deltaT = 3.44828e-05
Time = 3.44828e-05

smoothSolver:  Solving for alpha.water, Initial residual = 3.85864e-05, Final residual = 1.51252e-09, No Iterations 2
Phase-1 volume fraction = 0.500239  Min(alpha.water) = 0  Max(alpha.water) = 1
MULES: Correcting alpha.water
MULES: Correcting alpha.water
Phase-1 volume fraction = 0.500239  Min(alpha.water) = -2.82891e-06  Max(alpha.water) = 1
DICPCG:  Solving for p_rgh, Initial residual = 1, Final residual = 0.0378086, No Iterations 2
time step continuity errors : sum local = 0.000299137, global = 1.12806e-08, cumulative = 1.12825e-08
DICPCG:  Solving for p_rgh, Initial residual = 0.0188125, Final residual = 9.53492e-08, No Iterations 296
time step continuity errors : sum local = 1.79648e-09, global = 8.78376e-11, cumulative = 1.13703e-08
ExecutionTime = 6.63 s  ClockTime = 6 s

Courant Number mean: 0.00133347 max: 1.96352
Interface Courant Number mean: 0.000164841 max: 1.42672
deltaT = 1.75549e-05
Time = 5.20376e-05

smoothSolver:  Solving for alpha.water, Initial residual = 3.31452e-05, Final residual = 5.17002e-10, No Iterations 3
Phase-1 volume fraction = 0.500239  Min(alpha.water) = -1.68796e-21  Max(alpha.water) = 1
MULES: Correcting alpha.water
MULES: Correcting alpha.water
Phase-1 volume fraction = 0.500239  Min(alpha.water) = -3.26021e-06  Max(alpha.water) = 1
DICPCG:  Solving for p_rgh, Initial residual = 0.00221836, Final residual = 0.000105054, No Iterations 12
time step continuity errors : sum local = 2.9937e-06, global = -3.30296e-08, cumulative = -2.16593e-08
DICPCG:  Solving for p_rgh, Initial residual = 0.000983348, Final residual = 9.73151e-08, No Iterations 213
time step continuity errors : sum local = 2.76315e-09, global = -1.22443e-10, cumulative = -2.17817e-08
ExecutionTime = 9.44 s  ClockTime = 9 s

Courant Number mean: 0.000783142 max: 0.764002
Interface Courant Number mean: 0.000105465 max: 0.763847
deltaT = 1.97492e-05
Time = 7.17868e-05

smoothSolver:  Solving for alpha.water, Initial residual = 3.77889e-05, Final residual = 6.35091e-10, No Iterations 3
Phase-1 volume fraction = 0.500239  Min(alpha.water) = -5.59889e-19  Max(alpha.water) = 1
MULES: Correcting alpha.water
MULES: Correcting alpha.water
Phase-1 volume fraction = 0.500239  Min(alpha.water) = -0.000115288  Max(alpha.water) = 1
DICPCG:  Solving for p_rgh, Initial residual = 0.00116329, Final residual = 5.75624e-05, No Iterations 22
time step continuity errors : sum local = 2.30669e-06, global = 1.83823e-08, cumulative = -3.39942e-09
DICPCG:  Solving for p_rgh, Initial residual = 0.000320523, Final residual = 9.76658e-08, No Iterations 221
time step continuity errors : sum local = 3.79257e-09, global = -2.08969e-10, cumulative = -3.60839e-09
ExecutionTime = 12.34 s  ClockTime = 12 s

Courant Number mean: 0.000948025 max: 0.850842
Interface Courant Number mean: 0.000132927 max: 0.693971
deltaT = 2.15864e-05
Time = 9.33732e-05

smoothSolver:  Solving for alpha.water, Initial residual = 4.24383e-05, Final residual = 5.96324e-10, No Iterations 3
Phase-1 volume fraction = 0.500238  Min(alpha.water) = -1.03458e-18  Max(alpha.water) = 1
MULES: Correcting alpha.water
MULES: Correcting alpha.water
Phase-1 volume fraction = 0.500238  Min(alpha.water) = -0.000423307  Max(alpha.water) = 1
DICPCG:  Solving for p_rgh, Initial residual = 0.000810964, Final residual = 3.7942e-05, No Iterations 11
time step continuity errors : sum local = 1.54171e-06, global = 6.73637e-09, cumulative = 3.12798e-09
DICPCG:  Solving for p_rgh, Initial residual = 0.000254221, Final residual = 9.97648e-08, No Iterations 157
time step continuity errors : sum local = 4.02457e-09, global = 1.53053e-09, cumulative = 4.65851e-09
ExecutionTime = 14.88 s  ClockTime = 15 s

Courant Number mean: 0.00111213 max: 0.849417
Interface Courant Number mean: 0.000187053 max: 0.849417
deltaT = 2.38586e-05
Time = 0.000117232

smoothSolver:  Solving for alpha.water, Initial residual = 4.78485e-05, Final residual = 4.58907e-10, No Iterations 3
Phase-1 volume fraction = 0.500238  Min(alpha.water) = -1.08922e-18  Max(alpha.water) = 1
MULES: Correcting alpha.water
MULES: Correcting alpha.water
Phase-1 volume fraction = 0.500238  Min(alpha.water) = -0.000369387  Max(alpha.water) = 1
DICPCG:  Solving for p_rgh, Initial residual = 0.000624861, Final residual = 2.97127e-05, No Iterations 10
time step continuity errors : sum local = 1.43485e-06, global = 5.49331e-09, cumulative = 1.01518e-08
DICPCG:  Solving for p_rgh, Initial residual = 0.000299974, Final residual = 9.40909e-08, No Iterations 209
time step continuity errors : sum local = 4.52652e-09, global = -4.36804e-10, cumulative = 9.71502e-09
ExecutionTime = 17.52 s  ClockTime = 17 s

Courant Number mean: 0.00134078 max: 0.883107
Interface Courant Number mean: 0.000183162 max: 0.883107
deltaT = 2.59638e-05
Time = 0.000143196

smoothSolver:  Solving for alpha.water, Initial residual = 5.18698e-05, Final residual = 4.96205e-10, No Iterations 3
Phase-1 volume fraction = 0.500237  Min(alpha.water) = -1.08887e-18  Max(alpha.water) = 1
MULES: Correcting alpha.water
MULES: Correcting alpha.water
Phase-1 volume fraction = 0.500237  Min(alpha.water) = -0.000396155  Max(alpha.water) = 1
DICPCG:  Solving for p_rgh, Initial residual = 0.000727351, Final residual = 3.54447e-05, No Iterations 13
time step continuity errors : sum local = 2.04612e-06, global = -2.78919e-09, cumulative = 6.92582e-09
DICPCG:  Solving for p_rgh, Initial residual = 0.00029112, Final residual = 9.69755e-08, No Iterations 174
time step continuity errors : sum local = 5.55634e-09, global = -5.51645e-10, cumulative = 6.37418e-09
ExecutionTime = 20.01 s  ClockTime = 20 s

Courant Number mean: 0.00162324 max: 0.916905
Interface Courant Number mean: 0.000210952 max: 0.916905
deltaT = 2.76389e-05
Time = 0.000170834

smoothSolver:  Solving for alpha.water, Initial residual = 5.44955e-05, Final residual = 5.58369e-10, No Iterations 3
Phase-1 volume fraction = 0.500236  Min(alpha.water) = -1.08843e-18  Max(alpha.water) = 1
MULES: Correcting alpha.water
MULES: Correcting alpha.water
Phase-1 volume fraction = 0.500236  Min(alpha.water) = -0.000407456  Max(alpha.water) = 1
DICPCG:  Solving for p_rgh, Initial residual = 0.000782474, Final residual = 3.86942e-05, No Iterations 29
time step continuity errors : sum local = 2.51745e-06, global = -1.12034e-09, cumulative = 5.25384e-09
DICPCG:  Solving for p_rgh, Initial residual = 0.000306226, Final residual = 9.96057e-08, No Iterations 182
time step continuity errors : sum local = 6.3562e-09, global = 4.93952e-10, cumulative = 5.74779e-09
ExecutionTime = 22.6 s  ClockTime = 22 s

Courant Number mean: 0.00196016 max: 0.928246
Interface Courant Number mean: 0.000247906 max: 0.928246
deltaT = 2.96131e-05
Time = 0.000200447

smoothSolver:  Solving for alpha.water, Initial residual = 5.78776e-05, Final residual = 9.52423e-10, No Iterations 3
Phase-1 volume fraction = 0.500234  Min(alpha.water) = -1.08787e-18  Max(alpha.water) = 1
MULES: Correcting alpha.water
MULES: Correcting alpha.water
Phase-1 volume fraction = 0.500234  Min(alpha.water) = -0.000521439  Max(alpha.water) = 1
DICPCG:  Solving for p_rgh, Initial residual = 0.000834354, Final residual = 3.99094e-05, No Iterations 23
time step continuity errors : sum local = 2.92104e-06, global = 2.78512e-09, cumulative = 8.53292e-09
DICPCG:  Solving for p_rgh, Initial residual = 0.000270051, Final residual = 8.8649e-08, No Iterations 213
time step continuity errors : sum local = 6.36942e-09, global = -1.00482e-10, cumulative = 8.43243e-09
ExecutionTime = 25.33 s  ClockTime = 25 s

Courant Number mean: 0.00238726 max: 1.049
Interface Courant Number mean: 0.000258831 max: 1.049
deltaT = 2.75708e-05
Time = 0.000228018

smoothSolver:  Solving for alpha.water, Initial residual = 5.73565e-05, Final residual = 1.03486e-09, No Iterations 3
Phase-1 volume fraction = 0.500233  Min(alpha.water) = -1.08727e-18  Max(alpha.water) = 1
MULES: Correcting alpha.water
MULES: Correcting alpha.water
Phase-1 volume fraction = 0.500233  Min(alpha.water) = -0.000295269  Max(alpha.water) = 1
DICPCG:  Solving for p_rgh, Initial residual = 0.000979561, Final residual = 4.84428e-05, No Iterations 15
time step continuity errors : sum local = 2.97744e-06, global = -3.7028e-09, cumulative = 4.72963e-09
DICPCG:  Solving for p_rgh, Initial residual = 0.000210485, Final residual = 9.17605e-08, No Iterations 159
time step continuity errors : sum local = 5.58505e-09, global = 6.43556e-10, cumulative = 5.37319e-09
ExecutionTime = 27.75 s  ClockTime = 27 s

Courant Number mean: 0.0024471 max: 0.965359
Interface Courant Number mean: 0.000244809 max: 0.965359
deltaT = 2.75708e-05
Time = 0.000255589

smoothSolver:  Solving for alpha.water, Initial residual = 6.1036e-05, Final residual = 1.42672e-09, No Iterations 3
Phase-1 volume fraction = 0.500231  Min(alpha.water) = -1.08659e-18  Max(alpha.water) = 1
MULES: Correcting alpha.water
MULES: Correcting alpha.water
Phase-1 volume fraction = 0.500231  Min(alpha.water) = -0.000110719  Max(alpha.water) = 1
DICPCG:  Solving for p_rgh, Initial residual = 0.000977822, Final residual = 4.87432e-05, No Iterations 13
time step continuity errors : sum local = 2.95363e-06, global = 4.93614e-09, cumulative = 1.03093e-08
DICPCG:  Solving for p_rgh, Initial residual = 0.000236002, Final residual = 9.63089e-08, No Iterations 218
time step continuity errors : sum local = 5.77161e-09, global = 9.31366e-11, cumulative = 1.04025e-08
ExecutionTime = 30.41 s  ClockTime = 30 s

Courant Number mean: 0.00268801 max: 0.945517
Interface Courant Number mean: 0.000254531 max: 0.945517
deltaT = 2.86312e-05
Time = 0.00028422

smoothSolver:  Solving for alpha.water, Initial residual = 6.51995e-05, Final residual = 2.02522e-09, No Iterations 3
Phase-1 volume fraction = 0.500229  Min(alpha.water) = -1.08581e-18  Max(alpha.water) = 1
MULES: Correcting alpha.water
MULES: Correcting alpha.water
Phase-1 volume fraction = 0.500229  Min(alpha.water) = -0.000209932  Max(alpha.water) = 1
DICPCG:  Solving for p_rgh, Initial residual = 0.00120775, Final residual = 5.84329e-05, No Iterations 11
time step continuity errors : sum local = 3.63192e-06, global = 4.11352e-09, cumulative = 1.4516e-08
DICPCG:  Solving for p_rgh, Initial residual = 0.000202006, Final residual = 9.3204e-08, No Iterations 213
time step continuity errors : sum local = 5.74513e-09, global = 1.77082e-10, cumulative = 1.46931e-08
ExecutionTime = 33.04 s  ClockTime = 33 s

Courant Number mean: 0.00303058 max: 1.01514
Interface Courant Number mean: 0.000264893 max: 1.01514
deltaT = 2.753e-05
Time = 0.00031175

smoothSolver:  Solving for alpha.water, Initial residual = 6.70319e-05, Final residual = 1.78075e-09, No Iterations 3
Phase-1 volume fraction = 0.500227  Min(alpha.water) = -3.10043e-09  Max(alpha.water) = 1
MULES: Correcting alpha.water
MULES: Correcting alpha.water
Phase-1 volume fraction = 0.500227  Min(alpha.water) = -9.07388e-05  Max(alpha.water) = 1
DICPCG:  Solving for p_rgh, Initial residual = 0.00136414, Final residual = 6.32813e-05, No Iterations 9
time step continuity errors : sum local = 3.49966e-06, global = 8.89374e-11, cumulative = 1.4782e-08
DICPCG:  Solving for p_rgh, Initial residual = 0.000223569, Final residual = 9.88563e-08, No Iterations 207
time step continuity errors : sum local = 5.4323e-09, global = 3.26461e-10, cumulative = 1.51085e-08
ExecutionTime = 35.63 s  ClockTime = 35 s

Courant Number mean: 0.00312446 max: 0.990721
Interface Courant Number mean: 0.000267036 max: 0.990721
deltaT = 2.753e-05
Time = 0.00033928

smoothSolver:  Solving for alpha.water, Initial residual = 6.93761e-05, Final residual = 1.75209e-09, No Iterations 3
Phase-1 volume fraction = 0.500225  Min(alpha.water) = -2.2845e-09  Max(alpha.water) = 1
MULES: Correcting alpha.water
MULES: Correcting alpha.water
Phase-1 volume fraction = 0.500225  Min(alpha.water) = -9.66089e-05  Max(alpha.water) = 1
DICPCG:  Solving for p_rgh, Initial residual = 0.00105588, Final residual = 5.20337e-05, No Iterations 12
time step continuity errors : sum local = 2.80135e-06, global = 3.36075e-09, cumulative = 1.84692e-08
DICPCG:  Solving for p_rgh, Initial residual = 0.000198071, Final residual = 9.52997e-08, No Iterations 214
time step continuity errors : sum local = 5.08854e-09, global = 1.09305e-10, cumulative = 1.85785e-08
ExecutionTime = 38.27 s  ClockTime = 38 s

Courant Number mean: 0.00331685 max: 0.970997
Interface Courant Number mean: 0.000283413 max: 0.970997
deltaT = 2.753e-05
Time = 0.00036681

smoothSolver:  Solving for alpha.water, Initial residual = 7.1368e-05, Final residual = 1.66332e-09, No Iterations 3
Phase-1 volume fraction = 0.500222  Min(alpha.water) = -1.59418e-09  Max(alpha.water) = 1
MULES: Correcting alpha.water
MULES: Correcting alpha.water
Phase-1 volume fraction = 0.500222  Min(alpha.water) = -7.49979e-05  Max(alpha.water) = 1
DICPCG:  Solving for p_rgh, Initial residual = 0.00202454, Final residual = 9.82027e-05, No Iterations 5
time step continuity errors : sum local = 5.09799e-06, global = 2.03355e-09, cumulative = 2.06121e-08
DICPCG:  Solving for p_rgh, Initial residual = 0.000247672, Final residual = 9.32557e-08, No Iterations 221
time step continuity errors : sum local = 4.82211e-09, global = -1.70171e-11, cumulative = 2.05951e-08
ExecutionTime = 40.9 s  ClockTime = 41 s

Courant Number mean: 0.00349247 max: 0.981507
Interface Courant Number mean: 0.000279822 max: 0.981507
deltaT = 2.753e-05
Time = 0.00039434

smoothSolver:  Solving for alpha.water, Initial residual = 7.32672e-05, Final residual = 1.64061e-09, No Iterations 3
Phase-1 volume fraction = 0.50022  Min(alpha.water) = -1.4085e-09  Max(alpha.water) = 1
MULES: Correcting alpha.water
MULES: Correcting alpha.water
Phase-1 volume fraction = 0.50022  Min(alpha.water) = -8.46984e-05  Max(alpha.water) = 1
DICPCG:  Solving for p_rgh, Initial residual = 0.00183722, Final residual = 8.4439e-05, No Iterations 4
time step continuity errors : sum local = 4.22712e-06, global = 1.9588e-09, cumulative = 2.25539e-08
DICPCG:  Solving for p_rgh, Initial residual = 0.000229143, Final residual = 9.73674e-08, No Iterations 207
time step continuity errors : sum local = 4.86078e-09, global = 3.73377e-10, cumulative = 2.29272e-08
ExecutionTime = 43.47 s  ClockTime = 43 s

Courant Number mean: 0.00366944 max: 0.984183
Interface Courant Number mean: 0.000300225 max: 0.984183
deltaT = 2.753e-05
Time = 0.00042187

smoothSolver:  Solving for alpha.water, Initial residual = 7.54418e-05, Final residual = 1.47099e-09, No Iterations 3
Phase-1 volume fraction = 0.500217  Min(alpha.water) = -1.22346e-09  Max(alpha.water) = 1
MULES: Correcting alpha.water
MULES: Correcting alpha.water
Phase-1 volume fraction = 0.500217  Min(alpha.water) = -7.44413e-05  Max(alpha.water) = 1
DICPCG:  Solving for p_rgh, Initial residual = 0.00140906, Final residual = 6.31431e-05, No Iterations 8
time step continuity errors : sum local = 3.07442e-06, global = 2.35162e-09, cumulative = 2.52788e-08
DICPCG:  Solving for p_rgh, Initial residual = 0.000228364, Final residual = 9.44374e-08, No Iterations 206
time step continuity errors : sum local = 4.57883e-09, global = 2.51325e-10, cumulative = 2.55302e-08
ExecutionTime = 46.02 s  ClockTime = 46 s

Courant Number mean: 0.00384076 max: 0.962954
Interface Courant Number mean: 0.000321709 max: 0.962954
deltaT = 2.753e-05
Time = 0.0004494

smoothSolver:  Solving for alpha.water, Initial residual = 7.79162e-05, Final residual = 1.50723e-09, No Iterations 3
Phase-1 volume fraction = 0.500214  Min(alpha.water) = -1.038e-09  Max(alpha.water) = 1
MULES: Correcting alpha.water
MULES: Correcting alpha.water
Phase-1 volume fraction = 0.500214  Min(alpha.water) = -4.28024e-05  Max(alpha.water) = 1
DICPCG:  Solving for p_rgh, Initial residual = 0.0017751, Final residual = 8.27158e-05, No Iterations 5
time step continuity errors : sum local = 3.93467e-06, global = 1.57336e-09, cumulative = 2.71035e-08
DICPCG:  Solving for p_rgh, Initial residual = 0.000237874, Final residual = 9.40215e-08, No Iterations 219
time step continuity errors : sum local = 4.45925e-09, global = 8.98353e-11, cumulative = 2.71934e-08
ExecutionTime = 48.63 s  ClockTime = 48 s

Courant Number mean: 0.00401729 max: 0.981185
Interface Courant Number mean: 0.000311325 max: 0.981185
deltaT = 2.753e-05
Time = 0.00047693

smoothSolver:  Solving for alpha.water, Initial residual = 7.99124e-05, Final residual = 1.47323e-09, No Iterations 3
Phase-1 volume fraction = 0.500211  Min(alpha.water) = -8.64403e-10  Max(alpha.water) = 1
MULES: Correcting alpha.water
MULES: Correcting alpha.water
Phase-1 volume fraction = 0.500211  Min(alpha.water) = -5.97906e-05  Max(alpha.water) = 1
DICPCG:  Solving for p_rgh, Initial residual = 0.0019576, Final residual = 9.36148e-05, No Iterations 3
time step continuity errors : sum local = 4.33124e-06, global = 1.32451e-09, cumulative = 2.85179e-08
DICPCG:  Solving for p_rgh, Initial residual = 0.000246308, Final residual = 9.26477e-08, No Iterations 221
time step continuity errors : sum local = 4.27836e-09, global = 6.8808e-11, cumulative = 2.85867e-08
ExecutionTime = 51.25 s  ClockTime = 51 s

Courant Number mean: 0.00417995 max: 0.977168
Interface Courant Number mean: 0.000360582 max: 0.977168
deltaT = 2.753e-05
Time = 0.00050446

smoothSolver:  Solving for alpha.water, Initial residual = 8.19743e-05, Final residual = 1.55742e-09, No Iterations 3
Phase-1 volume fraction = 0.500208  Min(alpha.water) = -7.76987e-10  Max(alpha.water) = 1
MULES: Correcting alpha.water
MULES: Correcting alpha.water
Phase-1 volume fraction = 0.500208  Min(alpha.water) = -2.03844e-05  Max(alpha.water) = 1
DICPCG:  Solving for p_rgh, Initial residual = 0.00182186, Final residual = 8.94386e-05, No Iterations 4
time step continuity errors : sum local = 4.03185e-06, global = 1.59455e-09, cumulative = 3.01812e-08
DICPCG:  Solving for p_rgh, Initial residual = 0.000288269, Final residual = 9.90609e-08, No Iterations 211
time step continuity errors : sum local = 4.457e-09, global = 3.09624e-10, cumulative = 3.04909e-08
ExecutionTime = 53.8 s  ClockTime = 54 s

Courant Number mean: 0.00434189 max: 0.978193
Interface Courant Number mean: 0.000342134 max: 0.978193
deltaT = 2.753e-05
Time = 0.00053199

smoothSolver:  Solving for alpha.water, Initial residual = 8.34638e-05, Final residual = 1.51568e-09, No Iterations 3
Phase-1 volume fraction = 0.500205  Min(alpha.water) = -7.54338e-09  Max(alpha.water) = 1
MULES: Correcting alpha.water
MULES: Correcting alpha.water
Phase-1 volume fraction = 0.500205  Min(alpha.water) = -2.05429e-05  Max(alpha.water) = 1
DICPCG:  Solving for p_rgh, Initial residual = 0.00212247, Final residual = 9.18251e-05, No Iterations 4
time step continuity errors : sum local = 4.05093e-06, global = 1.77308e-09, cumulative = 3.22639e-08
DICPCG:  Solving for p_rgh, Initial residual = 0.000276518, Final residual = 9.51712e-08, No Iterations 210
time step continuity errors : sum local = 4.18964e-09, global = 2.61036e-10, cumulative = 3.2525e-08
ExecutionTime = 56.39 s  ClockTime = 56 s

Courant Number mean: 0.00449953 max: 0.989001
Interface Courant Number mean: 0.000376089 max: 0.989001
deltaT = 2.753e-05
Time = 0.00055952

smoothSolver:  Solving for alpha.water, Initial residual = 8.56623e-05, Final residual = 1.54158e-09, No Iterations 3
Phase-1 volume fraction = 0.500201  Min(alpha.water) = -5.51275e-09  Max(alpha.water) = 1
MULES: Correcting alpha.water
MULES: Correcting alpha.water
Phase-1 volume fraction = 0.500201  Min(alpha.water) = -2.66303e-05  Max(alpha.water) = 1
DICPCG:  Solving for p_rgh, Initial residual = 0.00165339, Final residual = 7.6511e-05, No Iterations 8
time step continuity errors : sum local = 3.30166e-06, global = 1.45885e-09, cumulative = 3.39838e-08
DICPCG:  Solving for p_rgh, Initial residual = 0.000272409, Final residual = 9.72142e-08, No Iterations 220
time step continuity errors : sum local = 4.1804e-09, global = 1.13957e-11, cumulative = 3.39952e-08
ExecutionTime = 59.03 s  ClockTime = 59 s

Courant Number mean: 0.00463246 max: 0.978208
Interface Courant Number mean: 0.000382121 max: 0.978208
deltaT = 2.753e-05
Time = 0.00058705

smoothSolver:  Solving for alpha.water, Initial residual = 8.68551e-05, Final residual = 1.62348e-09, No Iterations 3
Phase-1 volume fraction = 0.500197  Min(alpha.water) = -3.69764e-09  Max(alpha.water) = 1
MULES: Correcting alpha.water
MULES: Correcting alpha.water
Phase-1 volume fraction = 0.500197  Min(alpha.water) = -0.000235827  Max(alpha.water) = 1
DICPCG:  Solving for p_rgh, Initial residual = 0.00187891, Final residual = 9.12315e-05, No Iterations 5
time step continuity errors : sum local = 3.84975e-06, global = 8.71985e-10, cumulative = 3.48672e-08
DICPCG:  Solving for p_rgh, Initial residual = 0.000289037, Final residual = 9.43534e-08, No Iterations 223
time step continuity errors : sum local = 3.97294e-09, global = 2.46778e-10, cumulative = 3.5114e-08
ExecutionTime = 61.67 s  ClockTime = 61 s

Courant Number mean: 0.00479567 max: 0.996959
Interface Courant Number mean: 0.000383262 max: 0.996959
deltaT = 2.753e-05
Time = 0.00061458

smoothSolver:  Solving for alpha.water, Initial residual = 8.70666e-05, Final residual = 1.65764e-09, No Iterations 3
Phase-1 volume fraction = 0.500194  Min(alpha.water) = -1.10591e-06  Max(alpha.water) = 1
MULES: Correcting alpha.water
MULES: Correcting alpha.water
Phase-1 volume fraction = 0.500194  Min(alpha.water) = -0.00010202  Max(alpha.water) = 1
DICPCG:  Solving for p_rgh, Initial residual = 0.00222311, Final residual = 0.00010107, No Iterations 4
time step continuity errors : sum local = 4.17625e-06, global = 1.83713e-09, cumulative = 3.69511e-08
DICPCG:  Solving for p_rgh, Initial residual = 0.000305393, Final residual = 9.24397e-08, No Iterations 224
time step continuity errors : sum local = 3.81183e-09, global = 8.84139e-11, cumulative = 3.70395e-08
ExecutionTime = 64.31 s  ClockTime = 64 s

Courant Number mean: 0.00492907 max: 0.998582
Interface Courant Number mean: 0.000413037 max: 0.998582
deltaT = 2.753e-05
Time = 0.00064211

smoothSolver:  Solving for alpha.water, Initial residual = 8.87974e-05, Final residual = 1.62847e-09, No Iterations 3
Phase-1 volume fraction = 0.50019  Min(alpha.water) = -8.35312e-07  Max(alpha.water) = 1
MULES: Correcting alpha.water
MULES: Correcting alpha.water
Phase-1 volume fraction = 0.50019  Min(alpha.water) = -3.24084e-05  Max(alpha.water) = 1
DICPCG:  Solving for p_rgh, Initial residual = 0.00223818, Final residual = 0.000102902, No Iterations 4
time step continuity errors : sum local = 4.16489e-06, global = 1.06809e-09, cumulative = 3.81076e-08
DICPCG:  Solving for p_rgh, Initial residual = 0.000282182, Final residual = 9.93069e-08, No Iterations 223
time step continuity errors : sum local = 4.01207e-09, global = 2.23754e-10, cumulative = 3.83314e-08
ExecutionTime = 66.95 s  ClockTime = 67 s

Courant Number mean: 0.00506974 max: 0.994876
Interface Courant Number mean: 0.000412207 max: 0.994876
deltaT = 2.753e-05
Time = 0.00066964

smoothSolver:  Solving for alpha.water, Initial residual = 8.99478e-05, Final residual = 1.60451e-09, No Iterations 3
Phase-1 volume fraction = 0.500186  Min(alpha.water) = -6.34681e-07  Max(alpha.water) = 1
MULES: Correcting alpha.water
MULES: Correcting alpha.water
Phase-1 volume fraction = 0.500186  Min(alpha.water) = -5.945e-05  Max(alpha.water) = 1
DICPCG:  Solving for p_rgh, Initial residual = 0.00165965, Final residual = 7.9264e-05, No Iterations 4
time step continuity errors : sum local = 3.14675e-06, global = 1.22936e-09, cumulative = 3.95607e-08
DICPCG:  Solving for p_rgh, Initial residual = 0.000287257, Final residual = 9.13062e-08, No Iterations 224
time step continuity errors : sum local = 3.62054e-09, global = 1.87338e-10, cumulative = 3.97481e-08
ExecutionTime = 69.58 s  ClockTime = 69 s

Courant Number mean: 0.00520719 max: 1.00853
Interface Courant Number mean: 0.000428049 max: 1.00853
deltaT = 2.54123e-05
Time = 0.000695052

smoothSolver:  Solving for alpha.water, Initial residual = 8.43353e-05, Final residual = 1.1708e-09, No Iterations 3
Phase-1 volume fraction = 0.500182  Min(alpha.water) = -4.56785e-07  Max(alpha.water) = 1
MULES: Correcting alpha.water
MULES: Correcting alpha.water
Phase-1 volume fraction = 0.500182  Min(alpha.water) = -1.99273e-05  Max(alpha.water) = 1
DICPCG:  Solving for p_rgh, Initial residual = 0.00213443, Final residual = 9.57051e-05, No Iterations 4
time step continuity errors : sum local = 3.19161e-06, global = 3.33928e-11, cumulative = 3.97815e-08
DICPCG:  Solving for p_rgh, Initial residual = 0.000271154, Final residual = 9.43583e-08, No Iterations 226
time step continuity errors : sum local = 3.14163e-09, global = 1.51116e-10, cumulative = 3.99326e-08
ExecutionTime = 72.25 s  ClockTime = 72 s

Courant Number mean: 0.0049182 max: 0.928506
Interface Courant Number mean: 0.00040764 max: 0.928506
deltaT = 2.54123e-05
Time = 0.000720465

smoothSolver:  Solving for alpha.water, Initial residual = 8.53924e-05, Final residual = 1.22348e-09, No Iterations 3
Phase-1 volume fraction = 0.500178  Min(alpha.water) = -3.61753e-07  Max(alpha.water) = 1
MULES: Correcting alpha.water
MULES: Correcting alpha.water
Phase-1 volume fraction = 0.500178  Min(alpha.water) = -4.86946e-05  Max(alpha.water) = 1
DICPCG:  Solving for p_rgh, Initial residual = 0.00210852, Final residual = 9.19959e-05, No Iterations 3
time step continuity errors : sum local = 3.03408e-06, global = 1.55614e-09, cumulative = 4.14887e-08
DICPCG:  Solving for p_rgh, Initial residual = 0.000289841, Final residual = 9.89259e-08, No Iterations 227
time step continuity errors : sum local = 3.25901e-09, global = 2.48972e-10, cumulative = 4.17377e-08
ExecutionTime = 74.92 s  ClockTime = 75 s

Courant Number mean: 0.00504292 max: 0.927712
Interface Courant Number mean: 0.000409645 max: 0.927712
deltaT = 2.54123e-05
Time = 0.000745877

smoothSolver:  Solving for alpha.water, Initial residual = 8.60228e-05, Final residual = 1.24665e-09, No Iterations 3
Phase-1 volume fraction = 0.500174  Min(alpha.water) = -2.89027e-07  Max(alpha.water) = 1
MULES: Correcting alpha.water
MULES: Correcting alpha.water
Phase-1 volume fraction = 0.500174  Min(alpha.water) = -4.2967e-05  Max(alpha.water) = 1
DICPCG:  Solving for p_rgh, Initial residual = 0.0019484, Final residual = 9.21368e-05, No Iterations 3
time step continuity errors : sum local = 2.97711e-06, global = 8.7168e-10, cumulative = 4.26094e-08
DICPCG:  Solving for p_rgh, Initial residual = 0.000279072, Final residual = 9.37119e-08, No Iterations 209
time step continuity errors : sum local = 3.02522e-09, global = 9.95934e-11, cumulative = 4.2709e-08
ExecutionTime = 77.5 s  ClockTime = 77 s

Courant Number mean: 0.00515478 max: 0.936254
Interface Courant Number mean: 0.000431593 max: 0.936254
deltaT = 2.54123e-05
Time = 0.000771289

smoothSolver:  Solving for alpha.water, Initial residual = 8.70472e-05, Final residual = 1.25716e-09, No Iterations 3
Phase-1 volume fraction = 0.50017  Min(alpha.water) = -2.33147e-07  Max(alpha.water) = 1
MULES: Correcting alpha.water
MULES: Correcting alpha.water
Phase-1 volume fraction = 0.50017  Min(alpha.water) = -4.16615e-05  Max(alpha.water) = 1
DICPCG:  Solving for p_rgh, Initial residual = 0.00201329, Final residual = 8.72962e-05, No Iterations 5
time step continuity errors : sum local = 2.77984e-06, global = 6.56947e-10, cumulative = 4.33659e-08
DICPCG:  Solving for p_rgh, Initial residual = 0.000299089, Final residual = 9.83728e-08, No Iterations 206
time step continuity errors : sum local = 3.12836e-09, global = 2.21078e-10, cumulative = 4.3587e-08
ExecutionTime = 80.08 s  ClockTime = 80 s

Courant Number mean: 0.00527726 max: 0.933277
Interface Courant Number mean: 0.000462374 max: 0.933277
deltaT = 2.54123e-05
Time = 0.000796702

smoothSolver:  Solving for alpha.water, Initial residual = 8.81674e-05, Final residual = 1.27557e-09, No Iterations 3
Phase-1 volume fraction = 0.500166  Min(alpha.water) = -1.90063e-07  Max(alpha.water) = 1
MULES: Correcting alpha.water
MULES: Correcting alpha.water
Phase-1 volume fraction = 0.500166  Min(alpha.water) = -0.000115566  Max(alpha.water) = 1
DICPCG:  Solving for p_rgh, Initial residual = 0.00179358, Final residual = 8.8691e-05, No Iterations 5
time step continuity errors : sum local = 2.79093e-06, global = 5.61185e-10, cumulative = 4.41482e-08
DICPCG:  Solving for p_rgh, Initial residual = 0.000318927, Final residual = 8.92361e-08, No Iterations 224
time step continuity errors : sum local = 2.80474e-09, global = 1.2659e-10, cumulative = 4.42748e-08
ExecutionTime = 82.74 s  ClockTime = 82 s

Courant Number mean: 0.00538197 max: 0.933265
Interface Courant Number mean: 0.000450881 max: 0.933265
deltaT = 2.54123e-05
Time = 0.000822114

smoothSolver:  Solving for alpha.water, Initial residual = 8.88747e-05, Final residual = 1.31987e-09, No Iterations 3
Phase-1 volume fraction = 0.500161  Min(alpha.water) = -1.89509e-05  Max(alpha.water) = 1
MULES: Correcting alpha.water
MULES: Correcting alpha.water
Phase-1 volume fraction = 0.500161  Min(alpha.water) = -9.9583e-05  Max(alpha.water) = 1
DICPCG:  Solving for p_rgh, Initial residual = 0.00283975, Final residual = 0.000134979, No Iterations 2
time step continuity errors : sum local = 4.19536e-06, global = -3.24698e-10, cumulative = 4.39501e-08
DICPCG:  Solving for p_rgh, Initial residual = 0.000291892, Final residual = 9.50586e-08, No Iterations 223
time step continuity errors : sum local = 2.95005e-09, global = 1.51666e-10, cumulative = 4.41017e-08
ExecutionTime = 85.4 s  ClockTime = 85 s

Courant Number mean: 0.00550028 max: 0.940626
Interface Courant Number mean: 0.000472645 max: 0.940626
deltaT = 2.54123e-05
Time = 0.000847526

smoothSolver:  Solving for alpha.water, Initial residual = 9.00019e-05, Final residual = 1.34696e-09, No Iterations 3
Phase-1 volume fraction = 0.500157  Min(alpha.water) = -1.55474e-05  Max(alpha.water) = 1
MULES: Correcting alpha.water
MULES: Correcting alpha.water
Phase-1 volume fraction = 0.500157  Min(alpha.water) = -0.000107047  Max(alpha.water) = 1
DICPCG:  Solving for p_rgh, Initial residual = 0.00243851, Final residual = 0.000118623, No Iterations 4
time step continuity errors : sum local = 3.62766e-06, global = 1.02901e-09, cumulative = 4.51307e-08
DICPCG:  Solving for p_rgh, Initial residual = 0.000332567, Final residual = 9.3213e-08, No Iterations 209
time step continuity errors : sum local = 2.84692e-09, global = 1.48164e-10, cumulative = 4.52789e-08
ExecutionTime = 87.97 s  ClockTime = 88 s

Courant Number mean: 0.00559895 max: 0.937511
Interface Courant Number mean: 0.000491866 max: 0.937511
deltaT = 2.54123e-05
Time = 0.000872938

smoothSolver:  Solving for alpha.water, Initial residual = 9.08585e-05, Final residual = 1.35907e-09, No Iterations 3
Phase-1 volume fraction = 0.500152  Min(alpha.water) = -1.28175e-05  Max(alpha.water) = 1
MULES: Correcting alpha.water
MULES: Correcting alpha.water
Phase-1 volume fraction = 0.500152  Min(alpha.water) = -1.49576e-05  Max(alpha.water) = 1
DICPCG:  Solving for p_rgh, Initial residual = 0.0021344, Final residual = 7.85595e-05, No Iterations 3
time step continuity errors : sum local = 2.37551e-06, global = -9.45619e-10, cumulative = 4.43333e-08
DICPCG:  Solving for p_rgh, Initial residual = 0.000320523, Final residual = 9.73323e-08, No Iterations 206
time step continuity errors : sum local = 2.94082e-09, global = 2.0744e-10, cumulative = 4.45407e-08
ExecutionTime = 90.55 s  ClockTime = 90 s

Courant Number mean: 0.00571235 max: 0.937324
Interface Courant Number mean: 0.000483706 max: 0.937324
deltaT = 2.54123e-05
Time = 0.000898351

smoothSolver:  Solving for alpha.water, Initial residual = 9.14487e-05, Final residual = 1.38142e-09, No Iterations 3
Phase-1 volume fraction = 0.500148  Min(alpha.water) = -1.06212e-05  Max(alpha.water) = 1
MULES: Correcting alpha.water
MULES: Correcting alpha.water
Phase-1 volume fraction = 0.500148  Min(alpha.water) = -2.16256e-05  Max(alpha.water) = 1
DICPCG:  Solving for p_rgh, Initial residual = 0.00210826, Final residual = 0.00010076, No Iterations 4
time step continuity errors : sum local = 3.01358e-06, global = 1.07422e-09, cumulative = 4.56149e-08
DICPCG:  Solving for p_rgh, Initial residual = 0.000338607, Final residual = 9.84371e-08, No Iterations 209
time step continuity errors : sum local = 2.94139e-09, global = 2.76421e-10, cumulative = 4.58914e-08
ExecutionTime = 93.13 s  ClockTime = 93 s

Courant Number mean: 0.00583084 max: 0.942953
Interface Courant Number mean: 0.000509622 max: 0.942953
deltaT = 2.54123e-05
Time = 0.000923763

smoothSolver:  Solving for alpha.water, Initial residual = 9.27918e-05, Final residual = 1.40741e-09, No Iterations 3
Phase-1 volume fraction = 0.500143  Min(alpha.water) = -8.86048e-06  Max(alpha.water) = 1
MULES: Correcting alpha.water
MULES: Correcting alpha.water
Phase-1 volume fraction = 0.500143  Min(alpha.water) = -6.34348e-05  Max(alpha.water) = 1
DICPCG:  Solving for p_rgh, Initial residual = 0.00193778, Final residual = 9.21635e-05, No Iterations 7
time step continuity errors : sum local = 2.72905e-06, global = -4.63767e-11, cumulative = 4.5845e-08
DICPCG:  Solving for p_rgh, Initial residual = 0.000300722, Final residual = 9.28281e-08, No Iterations 223
time step continuity errors : sum local = 2.74473e-09, global = 1.16255e-10, cumulative = 4.59612e-08
ExecutionTime = 95.75 s  ClockTime = 95 s

Courant Number mean: 0.00591026 max: 0.940458
Interface Courant Number mean: 0.00050252 max: 0.940458
deltaT = 2.54123e-05
Time = 0.000949175

smoothSolver:  Solving for alpha.water, Initial residual = 9.20078e-05, Final residual = 1.42327e-09, No Iterations 3
Phase-1 volume fraction = 0.500138  Min(alpha.water) = -7.45407e-06  Max(alpha.water) = 1
MULES: Correcting alpha.water
MULES: Correcting alpha.water
Phase-1 volume fraction = 0.500138  Min(alpha.water) = -3.63591e-05  Max(alpha.water) = 1
DICPCG:  Solving for p_rgh, Initial residual = 0.00284976, Final residual = 0.000141396, No Iterations 2
time step continuity errors : sum local = 4.15674e-06, global = -2.89286e-09, cumulative = 4.30684e-08
DICPCG:  Solving for p_rgh, Initial residual = 0.000387604, Final residual = 9.40329e-08, No Iterations 210
time step continuity errors : sum local = 2.76122e-09, global = 1.5653e-10, cumulative = 4.32249e-08
ExecutionTime = 98.36 s  ClockTime = 98 s

Courant Number mean: 0.00605225 max: 0.939111
Interface Courant Number mean: 0.00054059 max: 0.939111
deltaT = 2.54123e-05
Time = 0.000974588

smoothSolver:  Solving for alpha.water, Initial residual = 9.30648e-05, Final residual = 1.46165e-09, No Iterations 3
Phase-1 volume fraction = 0.500133  Min(alpha.water) = -6.32814e-06  Max(alpha.water) = 1
MULES: Correcting alpha.water
MULES: Correcting alpha.water
Phase-1 volume fraction = 0.500133  Min(alpha.water) = -3.25112e-05  Max(alpha.water) = 1
DICPCG:  Solving for p_rgh, Initial residual = 0.00240804, Final residual = 0.000116934, No Iterations 3
time step continuity errors : sum local = 3.38914e-06, global = -2.46154e-09, cumulative = 4.07634e-08
DICPCG:  Solving for p_rgh, Initial residual = 0.000327466, Final residual = 9.52008e-08, No Iterations 208
time step continuity errors : sum local = 2.75683e-09, global = 2.94765e-10, cumulative = 4.10581e-08
ExecutionTime = 100.94 s  ClockTime = 101 s

Courant Number mean: 0.00617066 max: 0.942928
Interface Courant Number mean: 0.000557087 max: 0.942928
deltaT = 2.54123e-05
Time = 0.001

smoothSolver:  Solving for alpha.water, Initial residual = 9.35125e-05, Final residual = 1.47188e-09, No Iterations 3
Phase-1 volume fraction = 0.500128  Min(alpha.water) = -5.40072e-06  Max(alpha.water) = 1
MULES: Correcting alpha.water
MULES: Correcting alpha.water
Phase-1 volume fraction = 0.500128  Min(alpha.water) = -3.77976e-05  Max(alpha.water) = 1
DICPCG:  Solving for p_rgh, Initial residual = 0.00269889, Final residual = 9.99589e-05, No Iterations 3
time step continuity errors : sum local = 2.87469e-06, global = -5.19229e-09, cumulative = 3.58658e-08
DICPCG:  Solving for p_rgh, Initial residual = 0.000336966, Final residual = 9.64183e-08, No Iterations 204
time step continuity errors : sum local = 2.7698e-09, global = 1.18427e-10, cumulative = 3.59843e-08
ExecutionTime = 105.56 s  ClockTime = 105 s

Courant Number mean: 0.00628046 max: 0.951379
Interface Courant Number mean: 0.000588366 max: 0.951379
deltaT = 2.63158e-05
Time = 0.00102632

smoothSolver:  Solving for alpha.water, Initial residual = 9.67673e-05, Final residual = 1.75927e-09, No Iterations 3
Phase-1 volume fraction = 0.500123  Min(alpha.water) = -4.60994e-06  Max(alpha.water) = 1
MULES: Correcting alpha.water
MULES: Correcting alpha.water
Phase-1 volume fraction = 0.500123  Min(alpha.water) = -0.000114569  Max(alpha.water) = 1
DICPCG:  Solving for p_rgh, Initial residual = 0.00260059, Final residual = 0.000115058, No Iterations 4
time step continuity errors : sum local = 3.50954e-06, global = -6.349e-09, cumulative = 2.96353e-08
DICPCG:  Solving for p_rgh, Initial residual = 0.000356948, Final residual = 9.89078e-08, No Iterations 208
time step continuity errors : sum local = 3.01363e-09, global = 2.89123e-10, cumulative = 2.99244e-08
ExecutionTime = 108.12 s  ClockTime = 108 s

Courant Number mean: 0.00661786 max: 0.985105
Interface Courant Number mean: 0.00061829 max: 0.985105
deltaT = 2.63158e-05
Time = 0.00105263

smoothSolver:  Solving for alpha.water, Initial residual = 9.72867e-05, Final residual = 1.79188e-09, No Iterations 3
Phase-1 volume fraction = 0.500117  Min(alpha.water) = -3.95777e-06  Max(alpha.water) = 1
MULES: Correcting alpha.water
MULES: Correcting alpha.water
Phase-1 volume fraction = 0.500117  Min(alpha.water) = -8.75826e-06  Max(alpha.water) = 1
DICPCG:  Solving for p_rgh, Initial residual = 0.00224607, Final residual = 9.74249e-05, No Iterations 3
time step continuity errors : sum local = 2.93918e-06, global = -7.89818e-09, cumulative = 2.20262e-08
DICPCG:  Solving for p_rgh, Initial residual = 0.000325696, Final residual = 9.28326e-08, No Iterations 204
time step continuity errors : sum local = 2.79897e-09, global = 4.35922e-11, cumulative = 2.20698e-08
ExecutionTime = 110.68 s  ClockTime = 110 s

Courant Number mean: 0.00675406 max: 0.988677
Interface Courant Number mean: 0.00061859 max: 0.988677
deltaT = 2.63158e-05
Time = 0.00107895

smoothSolver:  Solving for alpha.water, Initial residual = 9.63679e-05, Final residual = 1.82029e-09, No Iterations 3
Phase-1 volume fraction = 0.500111  Min(alpha.water) = -3.42001e-06  Max(alpha.water) = 1
MULES: Correcting alpha.water
MULES: Correcting alpha.water
Phase-1 volume fraction = 0.500111  Min(alpha.water) = -0.000148113  Max(alpha.water) = 1
DICPCG:  Solving for p_rgh, Initial residual = 0.00239944, Final residual = 0.000110659, No Iterations 5
time step continuity errors : sum local = 3.32528e-06, global = 2.09791e-08, cumulative = 4.30489e-08
DICPCG:  Solving for p_rgh, Initial residual = 0.000359417, Final residual = 9.94323e-08, No Iterations 225
time step continuity errors : sum local = 2.98462e-09, global = 9.06848e-11, cumulative = 4.31396e-08
ExecutionTime = 113.37 s  ClockTime = 113 s

Courant Number mean: 0.00685822 max: 0.996537
Interface Courant Number mean: 0.000636811 max: 0.996537
deltaT = 2.63158e-05
Time = 0.00110526

smoothSolver:  Solving for alpha.water, Initial residual = 9.76175e-05, Final residual = 1.83209e-09, No Iterations 3
Phase-1 volume fraction = 0.500106  Min(alpha.water) = -2.97839e-06  Max(alpha.water) = 1
MULES: Correcting alpha.water
MULES: Correcting alpha.water
Phase-1 volume fraction = 0.500106  Min(alpha.water) = -2.45795e-05  Max(alpha.water) = 1
DICPCG:  Solving for p_rgh, Initial residual = 0.00299924, Final residual = 0.000118773, No Iterations 3
time step continuity errors : sum local = 3.54548e-06, global = -1.03028e-08, cumulative = 3.28369e-08
DICPCG:  Solving for p_rgh, Initial residual = 0.000348726, Final residual = 9.91977e-08, No Iterations 231
time step continuity errors : sum local = 2.95787e-09, global = 1.65079e-10, cumulative = 3.30019e-08
ExecutionTime = 116.04 s  ClockTime = 116 s

Courant Number mean: 0.00698989 max: 0.995459
Interface Courant Number mean: 0.000671809 max: 0.995459
deltaT = 2.63158e-05
Time = 0.00113158

smoothSolver:  Solving for alpha.water, Initial residual = 9.72473e-05, Final residual = 1.8561e-09, No Iterations 3
Phase-1 volume fraction = 0.5001  Min(alpha.water) = -2.90023e-06  Max(alpha.water) = 1
MULES: Correcting alpha.water
MULES: Correcting alpha.water
Phase-1 volume fraction = 0.5001  Min(alpha.water) = -3.78449e-05  Max(alpha.water) = 1
DICPCG:  Solving for p_rgh, Initial residual = 0.00270998, Final residual = 0.000128877, No Iterations 2
time step continuity errors : sum local = 3.80983e-06, global = -3.41355e-09, cumulative = 2.95884e-08
DICPCG:  Solving for p_rgh, Initial residual = 0.000414305, Final residual = 8.96633e-08, No Iterations 226
time step continuity errors : sum local = 2.64901e-09, global = 8.01406e-11, cumulative = 2.96685e-08
ExecutionTime = 118.69 s  ClockTime = 118 s

Courant Number mean: 0.00712537 max: 0.995579
Interface Courant Number mean: 0.000676973 max: 0.995579
deltaT = 2.63158e-05
Time = 0.00115789

smoothSolver:  Solving for alpha.water, Initial residual = 9.74339e-05, Final residual = 1.90302e-09, No Iterations 3
Phase-1 volume fraction = 0.500094  Min(alpha.water) = -2.79749e-06  Max(alpha.water) = 1
MULES: Correcting alpha.water
MULES: Correcting alpha.water
Phase-1 volume fraction = 0.500094  Min(alpha.water) = -3.94109e-05  Max(alpha.water) = 1
DICPCG:  Solving for p_rgh, Initial residual = 0.00280357, Final residual = 0.00012376, No Iterations 4
time step continuity errors : sum local = 3.63141e-06, global = 3.89526e-09, cumulative = 3.35638e-08
DICPCG:  Solving for p_rgh, Initial residual = 0.000366872, Final residual = 9.8191e-08, No Iterations 172
time step continuity errors : sum local = 2.87805e-09, global = 5.018e-10, cumulative = 3.40656e-08
ExecutionTime = 121.16 s  ClockTime = 121 s

Courant Number mean: 0.0072539 max: 1.00399
Interface Courant Number mean: 0.00070552 max: 1.00399
deltaT = 2.55183e-05
Time = 0.00118341

smoothSolver:  Solving for alpha.water, Initial residual = 9.47395e-05, Final residual = 1.65726e-09, No Iterations 3
Phase-1 volume fraction = 0.500088  Min(alpha.water) = -2.68227e-06  Max(alpha.water) = 1
MULES: Correcting alpha.water
MULES: Correcting alpha.water
Phase-1 volume fraction = 0.500088  Min(alpha.water) = -6.48174e-05  Max(alpha.water) = 1
DICPCG:  Solving for p_rgh, Initial residual = 0.00269757, Final residual = 0.000103234, No Iterations 4
time step continuity errors : sum local = 2.82947e-06, global = 4.77421e-09, cumulative = 3.88398e-08
DICPCG:  Solving for p_rgh, Initial residual = 0.000373124, Final residual = 9.63042e-08, No Iterations 204
time step continuity errors : sum local = 2.63707e-09, global = 1.55412e-10, cumulative = 3.89952e-08
ExecutionTime = 123.72 s  ClockTime = 124 s

Courant Number mean: 0.0071404 max: 0.973517
Interface Courant Number mean: 0.00070064 max: 0.973517
deltaT = 2.55183e-05
Time = 0.00120893

smoothSolver:  Solving for alpha.water, Initial residual = 9.5558e-05, Final residual = 1.66898e-09, No Iterations 3
Phase-1 volume fraction = 0.500082  Min(alpha.water) = -2.55937e-06  Max(alpha.water) = 1
MULES: Correcting alpha.water
MULES: Correcting alpha.water
Phase-1 volume fraction = 0.500082  Min(alpha.water) = -4.33268e-05  Max(alpha.water) = 1
DICPCG:  Solving for p_rgh, Initial residual = 0.00260345, Final residual = 0.000106675, No Iterations 3
time step continuity errors : sum local = 2.91111e-06, global = -2.31414e-09, cumulative = 3.66811e-08
DICPCG:  Solving for p_rgh, Initial residual = 0.000386355, Final residual = 9.67285e-08, No Iterations 204
time step continuity errors : sum local = 2.63771e-09, global = 1.07261e-10, cumulative = 3.67883e-08
ExecutionTime = 126.25 s  ClockTime = 126 s

Courant Number mean: 0.00725428 max: 0.966682
Interface Courant Number mean: 0.000698923 max: 0.966682
deltaT = 2.6369e-05
Time = 0.0012353

smoothSolver:  Solving for alpha.water, Initial residual = 9.9784e-05, Final residual = 1.99991e-09, No Iterations 3
Phase-1 volume fraction = 0.500076  Min(alpha.water) = -2.43026e-06  Max(alpha.water) = 1
MULES: Correcting alpha.water
MULES: Correcting alpha.water
Phase-1 volume fraction = 0.500076  Min(alpha.water) = -5.5219e-05  Max(alpha.water) = 1
DICPCG:  Solving for p_rgh, Initial residual = 0.00305769, Final residual = 0.000152371, No Iterations 3
time step continuity errors : sum local = 4.39912e-06, global = -3.01429e-09, cumulative = 3.3774e-08
DICPCG:  Solving for p_rgh, Initial residual = 0.000387497, Final residual = 9.50852e-08, No Iterations 209
time step continuity errors : sum local = 2.74286e-09, global = 2.20091e-10, cumulative = 3.39941e-08
ExecutionTime = 128.83 s  ClockTime = 129 s

Courant Number mean: 0.00762837 max: 1.00777
Interface Courant Number mean: 0.000744555 max: 1.00777
deltaT = 2.549e-05
Time = 0.00126079

smoothSolver:  Solving for alpha.water, Initial residual = 9.75041e-05, Final residual = 1.72792e-09, No Iterations 3
Phase-1 volume fraction = 0.50007  Min(alpha.water) = -2.30827e-06  Max(alpha.water) = 1
MULES: Correcting alpha.water
MULES: Correcting alpha.water
Phase-1 volume fraction = 0.50007  Min(alpha.water) = -6.65671e-06  Max(alpha.water) = 1
DICPCG:  Solving for p_rgh, Initial residual = 0.00263693, Final residual = 0.000118581, No Iterations 4
time step continuity errors : sum local = 3.17379e-06, global = 2.75631e-09, cumulative = 3.67504e-08
DICPCG:  Solving for p_rgh, Initial residual = 0.000369665, Final residual = 9.45836e-08, No Iterations 182
time step continuity errors : sum local = 2.52907e-09, global = 7.67016e-13, cumulative = 3.67512e-08
ExecutionTime = 131.32 s  ClockTime = 131 s

Courant Number mean: 0.00746844 max: 0.976082
Interface Courant Number mean: 0.000734765 max: 0.976082
deltaT = 2.549e-05
Time = 0.00128628

smoothSolver:  Solving for alpha.water, Initial residual = 9.83333e-05, Final residual = 1.74358e-09, No Iterations 3
Phase-1 volume fraction = 0.500064  Min(alpha.water) = -2.19183e-06  Max(alpha.water) = 1
MULES: Correcting alpha.water
MULES: Correcting alpha.water
Phase-1 volume fraction = 0.500064  Min(alpha.water) = -0.000119814  Max(alpha.water) = 1
DICPCG:  Solving for p_rgh, Initial residual = 0.00333226, Final residual = 0.000121654, No Iterations 3
time step continuity errors : sum local = 3.25579e-06, global = -1.50361e-09, cumulative = 3.52476e-08
DICPCG:  Solving for p_rgh, Initial residual = 0.000401887, Final residual = 8.98035e-08, No Iterations 208
time step continuity errors : sum local = 2.40019e-09, global = 1.85046e-10, cumulative = 3.54326e-08
ExecutionTime = 133.89 s  ClockTime = 134 s

Courant Number mean: 0.00760902 max: 0.970477
Interface Courant Number mean: 0.000775135 max: 0.970477
deltaT = 2.549e-05
Time = 0.00131177

smoothSolver:  Solving for alpha.water, Initial residual = 9.95155e-05, Final residual = 1.79018e-09, No Iterations 3
Phase-1 volume fraction = 0.500058  Min(alpha.water) = -2.07845e-06  Max(alpha.water) = 1
MULES: Correcting alpha.water
MULES: Correcting alpha.water
Phase-1 volume fraction = 0.500058  Min(alpha.water) = -7.85626e-05  Max(alpha.water) = 1
DICPCG:  Solving for p_rgh, Initial residual = 0.00296331, Final residual = 0.000126507, No Iterations 4
time step continuity errors : sum local = 3.35055e-06, global = 4.17497e-09, cumulative = 3.96076e-08
DICPCG:  Solving for p_rgh, Initial residual = 0.000390732, Final residual = 9.67062e-08, No Iterations 207
time step continuity errors : sum local = 2.55871e-09, global = 1.87961e-10, cumulative = 3.97956e-08
ExecutionTime = 136.49 s  ClockTime = 136 s

Courant Number mean: 0.00773511 max: 0.973532
Interface Courant Number mean: 0.000776884 max: 0.973532
deltaT = 2.549e-05
Time = 0.00133726

smoothSolver:  Solving for alpha.water, Initial residual = 0.000100475, Final residual = 1.83342e-09, No Iterations 3
Phase-1 volume fraction = 0.500052  Min(alpha.water) = -1.96897e-06  Max(alpha.water) = 1
MULES: Correcting alpha.water
MULES: Correcting alpha.water
Phase-1 volume fraction = 0.500052  Min(alpha.water) = -3.55035e-05  Max(alpha.water) = 1
DICPCG:  Solving for p_rgh, Initial residual = 0.00279604, Final residual = 0.000113372, No Iterations 3
time step continuity errors : sum local = 2.99008e-06, global = -2.23985e-09, cumulative = 3.75557e-08
DICPCG:  Solving for p_rgh, Initial residual = 0.000384619, Final residual = 9.81125e-08, No Iterations 215
time step continuity errors : sum local = 2.58585e-09, global = 1.14593e-10, cumulative = 3.76703e-08
ExecutionTime = 139.08 s  ClockTime = 139 s

Courant Number mean: 0.00785343 max: 0.977119
Interface Courant Number mean: 0.000785556 max: 0.977119
deltaT = 2.549e-05
Time = 0.00136275

smoothSolver:  Solving for alpha.water, Initial residual = 0.000101053, Final residual = 1.85133e-09, No Iterations 3
Phase-1 volume fraction = 0.500045  Min(alpha.water) = -2.6218e-05  Max(alpha.water) = 1
MULES: Correcting alpha.water
MULES: Correcting alpha.water
Phase-1 volume fraction = 0.500045  Min(alpha.water) = -0.000110442  Max(alpha.water) = 1
DICPCG:  Solving for p_rgh, Initial residual = 0.00313496, Final residual = 0.000147926, No Iterations 5
time step continuity errors : sum local = 3.88937e-06, global = -1.45654e-09, cumulative = 3.62138e-08
DICPCG:  Solving for p_rgh, Initial residual = 0.000438942, Final residual = 9.96995e-08, No Iterations 217
time step continuity errors : sum local = 2.61882e-09, global = 1.11665e-10, cumulative = 3.63254e-08
ExecutionTime = 141.71 s  ClockTime = 142 s

Courant Number mean: 0.00796782 max: 0.97576
Interface Courant Number mean: 0.00080884 max: 0.97576
deltaT = 2.549e-05
Time = 0.00138824

smoothSolver:  Solving for alpha.water, Initial residual = 0.000102818, Final residual = 1.886e-09, No Iterations 3
Phase-1 volume fraction = 0.500039  Min(alpha.water) = -1.90574e-05  Max(alpha.water) = 1
MULES: Correcting alpha.water
MULES: Correcting alpha.water
Phase-1 volume fraction = 0.500039  Min(alpha.water) = -0.000112882  Max(alpha.water) = 1
DICPCG:  Solving for p_rgh, Initial residual = 0.00318159, Final residual = 0.000126932, No Iterations 3
time step continuity errors : sum local = 3.31676e-06, global = -9.4996e-10, cumulative = 3.53755e-08
DICPCG:  Solving for p_rgh, Initial residual = 0.00035962, Final residual = 9.8261e-08, No Iterations 208
time step continuity errors : sum local = 2.56487e-09, global = -6.42876e-11, cumulative = 3.53112e-08
ExecutionTime = 144.36 s  ClockTime = 144 s

Courant Number mean: 0.00810679 max: 0.969975
Interface Courant Number mean: 0.000813273 max: 0.969975
deltaT = 2.549e-05
Time = 0.00141373

smoothSolver:  Solving for alpha.water, Initial residual = 0.00010408, Final residual = 1.92184e-09, No Iterations 3
Phase-1 volume fraction = 0.500032  Min(alpha.water) = -1.35885e-05  Max(alpha.water) = 1
MULES: Correcting alpha.water
MULES: Correcting alpha.water
Phase-1 volume fraction = 0.500032  Min(alpha.water) = -1.52894e-05  Max(alpha.water) = 1
DICPCG:  Solving for p_rgh, Initial residual = 0.00317322, Final residual = 0.000140518, No Iterations 3
time step continuity errors : sum local = 3.65453e-06, global = -1.97806e-09, cumulative = 3.33331e-08
DICPCG:  Solving for p_rgh, Initial residual = 0.00040043, Final residual = 9.39755e-08, No Iterations 226
time step continuity errors : sum local = 2.44108e-09, global = 1.18854e-10, cumulative = 3.3452e-08
ExecutionTime = 147.08 s  ClockTime = 147 s

Courant Number mean: 0.00822405 max: 0.981261
Interface Courant Number mean: 0.000817728 max: 0.981261
deltaT = 2.549e-05
Time = 0.00143922

smoothSolver:  Solving for alpha.water, Initial residual = 0.000105755, Final residual = 1.91736e-09, No Iterations 3
Phase-1 volume fraction = 0.500025  Min(alpha.water) = -9.37732e-06  Max(alpha.water) = 1
MULES: Correcting alpha.water
MULES: Correcting alpha.water
Phase-1 volume fraction = 0.500025  Min(alpha.water) = -4.69617e-05  Max(alpha.water) = 1
DICPCG:  Solving for p_rgh, Initial residual = 0.00309499, Final residual = 0.000149405, No Iterations 3
time step continuity errors : sum local = 3.85861e-06, global = -6.61779e-09, cumulative = 2.68342e-08
DICPCG:  Solving for p_rgh, Initial residual = 0.000413476, Final residual = 9.38288e-08, No Iterations 225
time step continuity errors : sum local = 2.42108e-09, global = -3.05444e-11, cumulative = 2.68037e-08
ExecutionTime = 150.22 s  ClockTime = 150 s

Courant Number mean: 0.0083424 max: 0.98533
Interface Courant Number mean: 0.000810582 max: 0.98533
deltaT = 2.549e-05
Time = 0.00146471

smoothSolver:  Solving for alpha.water, Initial residual = 0.000106431, Final residual = 1.934e-09, No Iterations 3
Phase-1 volume fraction = 0.500019  Min(alpha.water) = -6.13269e-06  Max(alpha.water) = 1
MULES: Correcting alpha.water
MULES: Correcting alpha.water
Phase-1 volume fraction = 0.500019  Min(alpha.water) = -0.000125038  Max(alpha.water) = 1
DICPCG:  Solving for p_rgh, Initial residual = 0.00297134, Final residual = 0.000116633, No Iterations 3
time step continuity errors : sum local = 2.99835e-06, global = -6.37552e-09, cumulative = 2.04281e-08
DICPCG:  Solving for p_rgh, Initial residual = 0.000374612, Final residual = 9.52169e-08, No Iterations 229
time step continuity errors : sum local = 2.44637e-09, global = 5.5387e-11, cumulative = 2.04835e-08
ExecutionTime = 152.91 s  ClockTime = 153 s

Courant Number mean: 0.00848639 max: 0.980624
Interface Courant Number mean: 0.000833419 max: 0.980624
deltaT = 2.549e-05
Time = 0.0014902

smoothSolver:  Solving for alpha.water, Initial residual = 0.000106276, Final residual = 1.98076e-09, No Iterations 3
Phase-1 volume fraction = 0.500012  Min(alpha.water) = -4.76733e-06  Max(alpha.water) = 1
MULES: Correcting alpha.water
MULES: Correcting alpha.water
Phase-1 volume fraction = 0.500012  Min(alpha.water) = -0.000237704  Max(alpha.water) = 1
DICPCG:  Solving for p_rgh, Initial residual = 0.00328479, Final residual = 0.000131766, No Iterations 3
time step continuity errors : sum local = 3.37513e-06, global = -4.44903e-09, cumulative = 1.60345e-08
DICPCG:  Solving for p_rgh, Initial residual = 0.000404757, Final residual = 9.43793e-08, No Iterations 224
time step continuity errors : sum local = 2.41467e-09, global = 1.17561e-11, cumulative = 1.60462e-08
ExecutionTime = 155.64 s  ClockTime = 155 s

Courant Number mean: 0.00863156 max: 0.983084
Interface Courant Number mean: 0.000857608 max: 0.983084
deltaT = 2.549e-05
Time = 0.00151569

smoothSolver:  Solving for alpha.water, Initial residual = 0.000107089, Final residual = 1.95658e-09, No Iterations 3
Phase-1 volume fraction = 0.500005  Min(alpha.water) = -3.71653e-06  Max(alpha.water) = 1
MULES: Correcting alpha.water
MULES: Correcting alpha.water
Phase-1 volume fraction = 0.500005  Min(alpha.water) = -0.000279833  Max(alpha.water) = 1
DICPCG:  Solving for p_rgh, Initial residual = 0.00306126, Final residual = 0.000134005, No Iterations 5
time step continuity errors : sum local = 3.41018e-06, global = 4.23599e-09, cumulative = 2.02822e-08
DICPCG:  Solving for p_rgh, Initial residual = 0.000422337, Final residual = 9.71885e-08, No Iterations 231
time step continuity errors : sum local = 2.47075e-09, global = -2.2557e-11, cumulative = 2.02597e-08
ExecutionTime = 158.35 s  ClockTime = 158 s

Courant Number mean: 0.00876372 max: 0.989283
Interface Courant Number mean: 0.000882683 max: 0.989283
deltaT = 2.549e-05
Time = 0.00154118

smoothSolver:  Solving for alpha.water, Initial residual = 0.000106968, Final residual = 1.94476e-09, No Iterations 3
Phase-1 volume fraction = 0.499998  Min(alpha.water) = -2.64747e-06  Max(alpha.water) = 1
MULES: Correcting alpha.water
MULES: Correcting alpha.water
Phase-1 volume fraction = 0.499998  Min(alpha.water) = -0.000146994  Max(alpha.water) = 1
DICPCG:  Solving for p_rgh, Initial residual = 0.00324849, Final residual = 0.000152676, No Iterations 4
time step continuity errors : sum local = 3.87491e-06, global = -2.47592e-09, cumulative = 1.77838e-08
DICPCG:  Solving for p_rgh, Initial residual = 0.000418916, Final residual = 9.36856e-08, No Iterations 231
time step continuity errors : sum local = 2.37494e-09, global = -7.85203e-11, cumulative = 1.77052e-08
ExecutionTime = 161.16 s  ClockTime = 161 s

Courant Number mean: 0.00886551 max: 0.986897
Interface Courant Number mean: 0.000875785 max: 0.986897
deltaT = 2.549e-05
Time = 0.00156667

smoothSolver:  Solving for alpha.water, Initial residual = 0.000106286, Final residual = 1.96993e-09, No Iterations 3
Phase-1 volume fraction = 0.499991  Min(alpha.water) = -1.82362e-06  Max(alpha.water) = 1
MULES: Correcting alpha.water
MULES: Correcting alpha.water
Phase-1 volume fraction = 0.499991  Min(alpha.water) = -0.000131459  Max(alpha.water) = 1
DICPCG:  Solving for p_rgh, Initial residual = 0.00336326, Final residual = 0.000131606, No Iterations 3
time step continuity errors : sum local = 3.32866e-06, global = -1.10494e-08, cumulative = 6.65582e-09
DICPCG:  Solving for p_rgh, Initial residual = 0.000461218, Final residual = 8.97486e-08, No Iterations 236
time step continuity errors : sum local = 2.26811e-09, global = -4.18174e-12, cumulative = 6.65164e-09
ExecutionTime = 164.41 s  ClockTime = 165 s

Courant Number mean: 0.00901339 max: 0.980543
Interface Courant Number mean: 0.000887755 max: 0.980543
deltaT = 2.549e-05
Time = 0.00159216

smoothSolver:  Solving for alpha.water, Initial residual = 0.000107684, Final residual = 1.95423e-09, No Iterations 3
Phase-1 volume fraction = 0.499984  Min(alpha.water) = -1.51159e-06  Max(alpha.water) = 1
MULES: Correcting alpha.water
MULES: Correcting alpha.water
Phase-1 volume fraction = 0.499984  Min(alpha.water) = -0.000133231  Max(alpha.water) = 1
DICPCG:  Solving for p_rgh, Initial residual = 0.00347858, Final residual = 0.000156827, No Iterations 4
time step continuity errors : sum local = 3.95611e-06, global = 2.66056e-09, cumulative = 9.3122e-09
DICPCG:  Solving for p_rgh, Initial residual = 0.000445314, Final residual = 9.97058e-08, No Iterations 227
time step continuity errors : sum local = 2.51288e-09, global = 2.80131e-11, cumulative = 9.34022e-09
ExecutionTime = 167.32 s  ClockTime = 168 s

Courant Number mean: 0.00916646 max: 0.987462
Interface Courant Number mean: 0.0009036 max: 0.987462
deltaT = 2.549e-05
Time = 0.00161765

smoothSolver:  Solving for alpha.water, Initial residual = 0.000107281, Final residual = 1.93596e-09, No Iterations 3
Phase-1 volume fraction = 0.499976  Min(alpha.water) = -1.42621e-06  Max(alpha.water) = 1
MULES: Correcting alpha.water
MULES: Correcting alpha.water
Phase-1 volume fraction = 0.499976  Min(alpha.water) = -0.000235573  Max(alpha.water) = 1
DICPCG:  Solving for p_rgh, Initial residual = 0.00346277, Final residual = 0.000170271, No Iterations 3
time step continuity errors : sum local = 4.28756e-06, global = 2.43881e-09, cumulative = 1.1779e-08
DICPCG:  Solving for p_rgh, Initial residual = 0.000451382, Final residual = 9.29025e-08, No Iterations 219
time step continuity errors : sum local = 2.33669e-09, global = 2.40174e-11, cumulative = 1.1803e-08
ExecutionTime = 170.21 s  ClockTime = 170 s

Courant Number mean: 0.00931598 max: 0.989474
Interface Courant Number mean: 0.00092775 max: 0.989474
deltaT = 2.549e-05
Time = 0.00164314

smoothSolver:  Solving for alpha.water, Initial residual = 0.000107032, Final residual = 1.95407e-09, No Iterations 3
Phase-1 volume fraction = 0.499969  Min(alpha.water) = -1.38947e-06  Max(alpha.water) = 1
MULES: Correcting alpha.water
MULES: Correcting alpha.water
Phase-1 volume fraction = 0.499969  Min(alpha.water) = -0.000122781  Max(alpha.water) = 1
DICPCG:  Solving for p_rgh, Initial residual = 0.00315656, Final residual = 0.000150994, No Iterations 4
time step continuity errors : sum local = 3.76924e-06, global = -1.50275e-08, cumulative = -3.22447e-09
DICPCG:  Solving for p_rgh, Initial residual = 0.000449705, Final residual = 9.58437e-08, No Iterations 185
time step continuity errors : sum local = 2.3902e-09, global = -6.5567e-11, cumulative = -3.29004e-09
ExecutionTime = 172.8 s  ClockTime = 173 s

Courant Number mean: 0.0094378 max: 0.990105
Interface Courant Number mean: 0.00095288 max: 0.990105
deltaT = 2.549e-05
Time = 0.00166863

smoothSolver:  Solving for alpha.water, Initial residual = 0.000108597, Final residual = 1.938e-09, No Iterations 3
Phase-1 volume fraction = 0.499961  Min(alpha.water) = -1.35112e-06  Max(alpha.water) = 1
MULES: Correcting alpha.water
MULES: Correcting alpha.water
Phase-1 volume fraction = 0.499961  Min(alpha.water) = -0.000115366  Max(alpha.water) = 1
DICPCG:  Solving for p_rgh, Initial residual = 0.00330638, Final residual = 0.000143396, No Iterations 3
time step continuity errors : sum local = 3.56791e-06, global = 6.50818e-10, cumulative = -2.63922e-09
DICPCG:  Solving for p_rgh, Initial residual = 0.00043105, Final residual = 9.86888e-08, No Iterations 234
time step continuity errors : sum local = 2.45362e-09, global = 3.13192e-11, cumulative = -2.6079e-09
ExecutionTime = 175.5 s  ClockTime = 176 s

Courant Number mean: 0.00958786 max: 0.982898
Interface Courant Number mean: 0.000925126 max: 0.982898
deltaT = 2.549e-05
Time = 0.00169412

smoothSolver:  Solving for alpha.water, Initial residual = 0.000108134, Final residual = 1.9422e-09, No Iterations 3
Phase-1 volume fraction = 0.499954  Min(alpha.water) = -1.31172e-06  Max(alpha.water) = 1
MULES: Correcting alpha.water
MULES: Correcting alpha.water
Phase-1 volume fraction = 0.499954  Min(alpha.water) = -0.000406688  Max(alpha.water) = 1
DICPCG:  Solving for p_rgh, Initial residual = 0.00367643, Final residual = 0.000158159, No Iterations 3
time step continuity errors : sum local = 3.92744e-06, global = -4.94639e-09, cumulative = -7.5543e-09
DICPCG:  Solving for p_rgh, Initial residual = 0.000441989, Final residual = 9.63577e-08, No Iterations 220
time step continuity errors : sum local = 2.38999e-09, global = 6.21746e-11, cumulative = -7.49212e-09
ExecutionTime = 178.29 s  ClockTime = 179 s

Courant Number mean: 0.00974487 max: 0.993827
Interface Courant Number mean: 0.000947466 max: 0.993827
deltaT = 2.549e-05
Time = 0.00171961

smoothSolver:  Solving for alpha.water, Initial residual = 0.000108618, Final residual = 1.92881e-09, No Iterations 3
Phase-1 volume fraction = 0.499946  Min(alpha.water) = -1.27154e-06  Max(alpha.water) = 1
MULES: Correcting alpha.water
MULES: Correcting alpha.water
Phase-1 volume fraction = 0.499946  Min(alpha.water) = -0.00012952  Max(alpha.water) = 1
DICPCG:  Solving for p_rgh, Initial residual = 0.00365297, Final residual = 0.000150164, No Iterations 3
time step continuity errors : sum local = 3.71932e-06, global = -8.33112e-09, cumulative = -1.58232e-08
DICPCG:  Solving for p_rgh, Initial residual = 0.000445181, Final residual = 9.81428e-08, No Iterations 220
time step continuity errors : sum local = 2.42778e-09, global = 8.05071e-11, cumulative = -1.57427e-08
ExecutionTime = 180.96 s  ClockTime = 181 s

Courant Number mean: 0.00988374 max: 0.996684
Interface Courant Number mean: 0.000968902 max: 0.996684
deltaT = 2.549e-05
Time = 0.0017451

smoothSolver:  Solving for alpha.water, Initial residual = 0.000110545, Final residual = 1.92099e-09, No Iterations 3
Phase-1 volume fraction = 0.499939  Min(alpha.water) = -1.23051e-06  Max(alpha.water) = 1
MULES: Correcting alpha.water
MULES: Correcting alpha.water
Phase-1 volume fraction = 0.499939  Min(alpha.water) = -0.00047866  Max(alpha.water) = 1
DICPCG:  Solving for p_rgh, Initial residual = 0.00354971, Final residual = 0.000169729, No Iterations 3
time step continuity errors : sum local = 4.18262e-06, global = -5.75737e-09, cumulative = -2.15001e-08
DICPCG:  Solving for p_rgh, Initial residual = 0.000465064, Final residual = 9.66447e-08, No Iterations 224
time step continuity errors : sum local = 2.37933e-09, global = -1.1056e-10, cumulative = -2.16107e-08
ExecutionTime = 183.63 s  ClockTime = 184 s

Courant Number mean: 0.0100403 max: 0.9923
Interface Courant Number mean: 0.000974216 max: 0.9923
deltaT = 2.549e-05
Time = 0.00177059

smoothSolver:  Solving for alpha.water, Initial residual = 0.000111942, Final residual = 1.94669e-09, No Iterations 3
Phase-1 volume fraction = 0.499931  Min(alpha.water) = -1.18882e-06  Max(alpha.water) = 1
MULES: Correcting alpha.water
MULES: Correcting alpha.water
Phase-1 volume fraction = 0.499931  Min(alpha.water) = -0.000438194  Max(alpha.water) = 1
DICPCG:  Solving for p_rgh, Initial residual = 0.00350488, Final residual = 0.000150414, No Iterations 4
time step continuity errors : sum local = 3.69342e-06, global = 4.68191e-09, cumulative = -1.69288e-08
DICPCG:  Solving for p_rgh, Initial residual = 0.000454532, Final residual = 9.84435e-08, No Iterations 232
time step continuity errors : sum local = 2.41449e-09, global = -7.1003e-11, cumulative = -1.69998e-08
ExecutionTime = 186.31 s  ClockTime = 187 s

Courant Number mean: 0.0101717 max: 0.990578
Interface Courant Number mean: 0.000986341 max: 0.990578
deltaT = 2.549e-05
Time = 0.00179608

smoothSolver:  Solving for alpha.water, Initial residual = 0.000112402, Final residual = 1.8924e-09, No Iterations 3
Phase-1 volume fraction = 0.499923  Min(alpha.water) = -1.16073e-06  Max(alpha.water) = 1
MULES: Correcting alpha.water
MULES: Correcting alpha.water
Phase-1 volume fraction = 0.499923  Min(alpha.water) = -0.000411577  Max(alpha.water) = 1
DICPCG:  Solving for p_rgh, Initial residual = 0.00356787, Final residual = 0.000142838, No Iterations 3
time step continuity errors : sum local = 3.49539e-06, global = -4.14249e-09, cumulative = -2.11422e-08
DICPCG:  Solving for p_rgh, Initial residual = 0.000468113, Final residual = 9.89288e-08, No Iterations 229
time step continuity errors : sum local = 2.41868e-09, global = -3.70828e-11, cumulative = -2.11793e-08
ExecutionTime = 189.06 s  ClockTime = 189 s

Courant Number mean: 0.0103313 max: 0.995547
Interface Courant Number mean: 0.00100642 max: 0.995547
deltaT = 2.549e-05
Time = 0.00182157

smoothSolver:  Solving for alpha.water, Initial residual = 0.00011384, Final residual = 1.88047e-09, No Iterations 3
Phase-1 volume fraction = 0.499915  Min(alpha.water) = -1.15495e-06  Max(alpha.water) = 1
MULES: Correcting alpha.water
MULES: Correcting alpha.water
Phase-1 volume fraction = 0.499915  Min(alpha.water) = -0.000429287  Max(alpha.water) = 1
DICPCG:  Solving for p_rgh, Initial residual = 0.00373417, Final residual = 0.00017078, No Iterations 4
time step continuity errors : sum local = 4.17127e-06, global = 7.50729e-09, cumulative = -1.3672e-08
DICPCG:  Solving for p_rgh, Initial residual = 0.000495407, Final residual = 9.63453e-08, No Iterations 227
time step continuity errors : sum local = 2.35083e-09, global = 5.88618e-11, cumulative = -1.36132e-08
ExecutionTime = 191.74 s  ClockTime = 192 s

Courant Number mean: 0.0104948 max: 0.996683
Interface Courant Number mean: 0.00102523 max: 0.996683
deltaT = 2.549e-05
Time = 0.00184706

smoothSolver:  Solving for alpha.water, Initial residual = 0.000114898, Final residual = 1.92949e-09, No Iterations 3
Phase-1 volume fraction = 0.499907  Min(alpha.water) = -1.14762e-06  Max(alpha.water) = 1
MULES: Correcting alpha.water
MULES: Correcting alpha.water
Phase-1 volume fraction = 0.499907  Min(alpha.water) = -0.000224667  Max(alpha.water) = 1
DICPCG:  Solving for p_rgh, Initial residual = 0.00382898, Final residual = 0.000149773, No Iterations 3
time step continuity errors : sum local = 3.64468e-06, global = -5.13287e-09, cumulative = -1.87461e-08
DICPCG:  Solving for p_rgh, Initial residual = 0.000478161, Final residual = 9.37398e-08, No Iterations 239
time step continuity errors : sum local = 2.27877e-09, global = 6.7045e-11, cumulative = -1.8679e-08
ExecutionTime = 194.46 s  ClockTime = 195 s

Courant Number mean: 0.0106687 max: 1.00157
Interface Courant Number mean: 0.00101802 max: 1.00157
deltaT = 2.549e-05
Time = 0.00187255

smoothSolver:  Solving for alpha.water, Initial residual = 0.000115071, Final residual = 1.86967e-09, No Iterations 3
Phase-1 volume fraction = 0.499899  Min(alpha.water) = -1.13892e-06  Max(alpha.water) = 1
MULES: Correcting alpha.water
MULES: Correcting alpha.water
Phase-1 volume fraction = 0.499899  Min(alpha.water) = -0.000504227  Max(alpha.water) = 1
DICPCG:  Solving for p_rgh, Initial residual = 0.00346631, Final residual = 0.000155161, No Iterations 5
time step continuity errors : sum local = 3.76181e-06, global = 2.17097e-09, cumulative = -1.6508e-08
DICPCG:  Solving for p_rgh, Initial residual = 0.000491043, Final residual = 9.86163e-08, No Iterations 234
time step continuity errors : sum local = 2.38852e-09, global = 9.17197e-11, cumulative = -1.64163e-08
ExecutionTime = 197.35 s  ClockTime = 198 s

Courant Number mean: 0.0108269 max: 0.993968
Interface Courant Number mean: 0.00103875 max: 0.986411
deltaT = 2.549e-05
Time = 0.00189804

smoothSolver:  Solving for alpha.water, Initial residual = 0.000114868, Final residual = 1.85587e-09, No Iterations 3
Phase-1 volume fraction = 0.499891  Min(alpha.water) = -1.40017e-06  Max(alpha.water) = 1
MULES: Correcting alpha.water
MULES: Correcting alpha.water
Phase-1 volume fraction = 0.499891  Min(alpha.water) = -0.000328469  Max(alpha.water) = 1
DICPCG:  Solving for p_rgh, Initial residual = 0.003683, Final residual = 0.000151054, No Iterations 4
time step continuity errors : sum local = 3.65131e-06, global = 5.16874e-09, cumulative = -1.12476e-08
DICPCG:  Solving for p_rgh, Initial residual = 0.000485481, Final residual = 9.65449e-08, No Iterations 179
time step continuity errors : sum local = 2.33122e-09, global = 5.48696e-11, cumulative = -1.11927e-08
ExecutionTime = 200.12 s  ClockTime = 201 s

Courant Number mean: 0.0109917 max: 0.999218
Interface Courant Number mean: 0.0010657 max: 0.999218
deltaT = 2.549e-05
Time = 0.00192353

smoothSolver:  Solving for alpha.water, Initial residual = 0.000114873, Final residual = 1.89412e-09, No Iterations 3
Phase-1 volume fraction = 0.499883  Min(alpha.water) = -1.16807e-06  Max(alpha.water) = 1
MULES: Correcting alpha.water
MULES: Correcting alpha.water
Phase-1 volume fraction = 0.499883  Min(alpha.water) = -0.000419678  Max(alpha.water) = 1
DICPCG:  Solving for p_rgh, Initial residual = 0.00348709, Final residual = 0.000148234, No Iterations 4
time step continuity errors : sum local = 3.56597e-06, global = 4.67056e-09, cumulative = -6.52215e-09
DICPCG:  Solving for p_rgh, Initial residual = 0.000462765, Final residual = 9.24662e-08, No Iterations 209
time step continuity errors : sum local = 2.22281e-09, global = 1.07319e-10, cumulative = -6.41483e-09
ExecutionTime = 202.85 s  ClockTime = 203 s

Courant Number mean: 0.0111638 max: 1.00594
Interface Courant Number mean: 0.00104199 max: 1.00594
deltaT = 1.91175e-05
Time = 0.00194265

smoothSolver:  Solving for alpha.water, Initial residual = 8.58427e-05, Final residual = 4.28386e-10, No Iterations 3
Phase-1 volume fraction = 0.499877  Min(alpha.water) = -1.10609e-06  Max(alpha.water) = 1
MULES: Correcting alpha.water
MULES: Correcting alpha.water
Phase-1 volume fraction = 0.499877  Min(alpha.water) = -7.05538e-05  Max(alpha.water) = 1
DICPCG:  Solving for p_rgh, Initial residual = 0.00348738, Final residual = 0.000164126, No Iterations 5
time step continuity errors : sum local = 2.24156e-06, global = -1.17882e-09, cumulative = -7.59365e-09
DICPCG:  Solving for p_rgh, Initial residual = 0.000452607, Final residual = 9.46042e-08, No Iterations 226
time step continuity errors : sum local = 1.2906e-09, global = -3.86004e-11, cumulative = -7.63225e-09
ExecutionTime = 205.65 s  ClockTime = 206 s

Courant Number mean: 0.0084576 max: 0.757183
Interface Courant Number mean: 0.000773952 max: 0.731298
deltaT = 1.91175e-05
Time = 0.00196177

smoothSolver:  Solving for alpha.water, Initial residual = 8.55689e-05, Final residual = 4.18544e-10, No Iterations 3
Phase-1 volume fraction = 0.49987  Min(alpha.water) = -1.09514e-06  Max(alpha.water) = 1
MULES: Correcting alpha.water
MULES: Correcting alpha.water
Phase-1 volume fraction = 0.49987  Min(alpha.water) = -0.000105929  Max(alpha.water) = 1
DICPCG:  Solving for p_rgh, Initial residual = 0.00334125, Final residual = 0.00011743, No Iterations 3
time step continuity errors : sum local = 1.63341e-06, global = -9.58795e-10, cumulative = -8.59105e-09
DICPCG:  Solving for p_rgh, Initial residual = 0.000423792, Final residual = 9.19908e-08, No Iterations 230
time step continuity errors : sum local = 1.2783e-09, global = 3.39151e-11, cumulative = -8.55713e-09
ExecutionTime = 208.46 s  ClockTime = 209 s

Courant Number mean: 0.00856052 max: 0.763875
Interface Courant Number mean: 0.000789888 max: 0.739276
deltaT = 1.91175e-05
Time = 0.00198088

smoothSolver:  Solving for alpha.water, Initial residual = 8.55517e-05, Final residual = 4.15938e-10, No Iterations 3
Phase-1 volume fraction = 0.499864  Min(alpha.water) = -1.0833e-06  Max(alpha.water) = 1
MULES: Correcting alpha.water
MULES: Correcting alpha.water
Phase-1 volume fraction = 0.499864  Min(alpha.water) = -0.00019179  Max(alpha.water) = 1
DICPCG:  Solving for p_rgh, Initial residual = 0.00318607, Final residual = 0.000149905, No Iterations 3
time step continuity errors : sum local = 2.03847e-06, global = -2.27112e-09, cumulative = -1.08283e-08
DICPCG:  Solving for p_rgh, Initial residual = 0.000462518, Final residual = 9.65196e-08, No Iterations 207
time step continuity errors : sum local = 1.31133e-09, global = 2.90595e-11, cumulative = -1.07992e-08
ExecutionTime = 211.18 s  ClockTime = 212 s

Courant Number mean: 0.00866265 max: 0.764463
Interface Courant Number mean: 0.000817358 max: 0.744542
deltaT = 1.91175e-05
Time = 0.002

smoothSolver:  Solving for alpha.water, Initial residual = 8.63553e-05, Final residual = 4.24771e-10, No Iterations 3
Phase-1 volume fraction = 0.499858  Min(alpha.water) = -1.07064e-06  Max(alpha.water) = 1
MULES: Correcting alpha.water
MULES: Correcting alpha.water
Phase-1 volume fraction = 0.499858  Min(alpha.water) = -0.000105502  Max(alpha.water) = 1
DICPCG:  Solving for p_rgh, Initial residual = 0.00321981, Final residual = 0.00015196, No Iterations 4
time step continuity errors : sum local = 2.05717e-06, global = 1.82873e-09, cumulative = -8.97047e-09
DICPCG:  Solving for p_rgh, Initial residual = 0.000446384, Final residual = 9.93958e-08, No Iterations 218
time step continuity errors : sum local = 1.34458e-09, global = 3.8231e-11, cumulative = -8.93224e-09
ExecutionTime = 216.08 s  ClockTime = 217 s

Courant Number mean: 0.00875671 max: 0.769988
Interface Courant Number mean: 0.000801785 max: 0.745622
deltaT = 2.12766e-05
Time = 0.00202128

smoothSolver:  Solving for alpha.water, Initial residual = 9.6458e-05, Final residual = 7.34525e-10, No Iterations 3
Phase-1 volume fraction = 0.499851  Min(alpha.water) = -1.05563e-06  Max(alpha.water) = 1
MULES: Correcting alpha.water
MULES: Correcting alpha.water
Phase-1 volume fraction = 0.499851  Min(alpha.water) = -0.000291316  Max(alpha.water) = 1
DICPCG:  Solving for p_rgh, Initial residual = 0.00317598, Final residual = 0.000158013, No Iterations 3
time step continuity errors : sum local = 2.63569e-06, global = -3.41851e-09, cumulative = -1.23507e-08
DICPCG:  Solving for p_rgh, Initial residual = 0.000489703, Final residual = 9.87542e-08, No Iterations 224
time step continuity errors : sum local = 1.64649e-09, global = 3.58666e-11, cumulative = -1.23149e-08
ExecutionTime = 218.88 s  ClockTime = 219 s

Courant Number mean: 0.00986705 max: 0.869534
Interface Courant Number mean: 0.00089983 max: 0.811363
deltaT = 2.33029e-05
Time = 0.00204458

smoothSolver:  Solving for alpha.water, Initial residual = 0.000105543, Final residual = 1.16396e-09, No Iterations 3
Phase-1 volume fraction = 0.499843  Min(alpha.water) = -1.03819e-06  Max(alpha.water) = 1
MULES: Correcting alpha.water
MULES: Correcting alpha.water
Phase-1 volume fraction = 0.499843  Min(alpha.water) = -0.000142776  Max(alpha.water) = 1
DICPCG:  Solving for p_rgh, Initial residual = 0.0038167, Final residual = 0.000172931, No Iterations 5
time step continuity errors : sum local = 3.42829e-06, global = 1.73358e-09, cumulative = -1.05813e-08
DICPCG:  Solving for p_rgh, Initial residual = 0.000572574, Final residual = 9.01945e-08, No Iterations 217
time step continuity errors : sum local = 1.78676e-09, global = -1.24772e-12, cumulative = -1.05825e-08
ExecutionTime = 221.63 s  ClockTime = 222 s

Courant Number mean: 0.0109569 max: 0.973754
Interface Courant Number mean: 0.00100218 max: 0.891259
deltaT = 2.38855e-05
Time = 0.00206847

smoothSolver:  Solving for alpha.water, Initial residual = 0.00010846, Final residual = 1.28658e-09, No Iterations 3
Phase-1 volume fraction = 0.499835  Min(alpha.water) = -1.01939e-06  Max(alpha.water) = 1
MULES: Correcting alpha.water
MULES: Correcting alpha.water
Phase-1 volume fraction = 0.499835  Min(alpha.water) = -0.00074984  Max(alpha.water) = 1
DICPCG:  Solving for p_rgh, Initial residual = 0.00392488, Final residual = 0.000193223, No Iterations 3
time step continuity errors : sum local = 4.0211e-06, global = -6.89784e-09, cumulative = -1.74804e-08
DICPCG:  Solving for p_rgh, Initial residual = 0.000546147, Final residual = 9.80295e-08, No Iterations 226
time step continuity errors : sum local = 2.03867e-09, global = 8.17245e-12, cumulative = -1.74722e-08
ExecutionTime = 224.44 s  ClockTime = 225 s

Courant Number mean: 0.0113953 max: 1.01247
Interface Courant Number mean: 0.00103453 max: 0.921312
deltaT = 2.32884e-05
Time = 0.00209175

smoothSolver:  Solving for alpha.water, Initial residual = 0.000107148, Final residual = 1.12235e-09, No Iterations 3
Phase-1 volume fraction = 0.499827  Min(alpha.water) = -1.00028e-06  Max(alpha.water) = 1
MULES: Correcting alpha.water
MULES: Correcting alpha.water
[...]
Phase-1 volume fraction = 0.499619  Min(alpha.water) = -7.48968e-07  Max(alpha.water) = 1
MULES: Correcting alpha.water
MULES: Correcting alpha.water
Phase-1 volume fraction = 0.499619  Min(alpha.water) = -0.00016805  Max(alpha.water) = 1
DICPCG:  Solving for p_rgh, Initial residual = 0.0044379, Final residual = 0.000180198, No Iterations 4
time step continuity errors : sum local = 2.20971e-06, global = 1.82088e-09, cumulative = -5.93796e-08
DICPCG:  Solving for p_rgh, Initial residual = 0.000689478, Final residual = 9.20596e-08, No Iterations 234
time step continuity errors : sum local = 1.12793e-09, global = -1.84728e-11, cumulative = -5.9398e-08
ExecutionTime = 309.57 s  ClockTime = 314 s

Courant Number mean: 0.0122137 max: 0.973326
Interface Courant Number mean: 0.0010125 max: 0.762181
deltaT = 1.86428e-05
Time = 0.00266443

smoothSolver:  Solving for alpha.water, Initial residual = 9.21765e-05, Final residual = 2.87713e-10, No Iterations 3
Phase-1 volume fraction = 0.499612  Min(alpha.water) = -7.38652e-07  Max(alpha.water) = 1
MULES: Correcting alpha.water
MULES: Correcting alpha.water
Phase-1 volume fraction = 0.499612  Min(alpha.water) = -0.000229651  Max(alpha.water) = 1
DICPCG:  Solving for p_rgh, Initial residual = 0.00447513, Final residual = 0.000196225, No Iterations 4
time step continuity errors : sum local = 2.40835e-06, global = 9.95146e-09, cumulative = -4.94466e-08
DICPCG:  Solving for p_rgh, Initial residual = 0.000679757, Final residual = 9.61243e-08, No Iterations 228
time step continuity errors : sum local = 1.17814e-09, global = 1.86481e-11, cumulative = -4.94279e-08
ExecutionTime = 313.11 s  ClockTime = 319 s

Courant Number mean: 0.0123317 max: 0.98208
Interface Courant Number mean: 0.00103642 max: 0.760586
deltaT = 1.86428e-05
Time = 0.00268307

smoothSolver:  Solving for alpha.water, Initial residual = 9.28042e-05, Final residual = 2.86397e-10, No Iterations 3
Phase-1 volume fraction = 0.499604  Min(alpha.water) = -7.28125e-07  Max(alpha.water) = 1
MULES: Correcting alpha.water
MULES: Correcting alpha.water
Phase-1 volume fraction = 0.499604  Min(alpha.water) = -0.000129334  Max(alpha.water) = 1
DICPCG:  Solving for p_rgh, Initial residual = 0.00461105, Final residual = 0.000174382, No Iterations 4
time step continuity errors : sum local = 2.13448e-06, global = 7.8098e-09, cumulative = -4.16181e-08
DICPCG:  Solving for p_rgh, Initial residual = 0.000730873, Final residual = 9.01749e-08, No Iterations 238
time step continuity errors : sum local = 1.10237e-09, global = -1.82161e-11, cumulative = -4.16363e-08
ExecutionTime = 316.17 s  ClockTime = 322 s

Courant Number mean: 0.0124587 max: 0.992652
Interface Courant Number mean: 0.00103577 max: 0.752343
deltaT = 1.86428e-05
Time = 0.00270172

smoothSolver:  Solving for alpha.water, Initial residual = 9.36622e-05, Final residual = 2.84634e-10, No Iterations 3
Phase-1 volume fraction = 0.499596  Min(alpha.water) = -7.1742e-07  Max(alpha.water) = 1
MULES: Correcting alpha.water
MULES: Correcting alpha.water
Phase-1 volume fraction = 0.499596  Min(alpha.water) = -0.000256659  Max(alpha.water) = 1
DICPCG:  Solving for p_rgh, Initial residual = 0.00455054, Final residual = 0.000224035, No Iterations 3
time step continuity errors : sum local = 2.73906e-06, global = -3.32734e-09, cumulative = -4.49637e-08
DICPCG:  Solving for p_rgh, Initial residual = 0.000738298, Final residual = 9.8887e-08, No Iterations 231
time step continuity errors : sum local = 1.2076e-09, global = -3.88566e-11, cumulative = -4.50025e-08
ExecutionTime = 319.18 s  ClockTime = 325 s

Courant Number mean: 0.0125873 max: 1.00051
Interface Courant Number mean: 0.0010712 max: 0.743594
deltaT = 1.86428e-05
Time = 0.00272036

smoothSolver:  Solving for alpha.water, Initial residual = 9.37826e-05, Final residual = 2.79432e-10, No Iterations 3
Phase-1 volume fraction = 0.499589  Min(alpha.water) = -7.12591e-07  Max(alpha.water) = 1
MULES: Correcting alpha.water
MULES: Correcting alpha.water
Phase-1 volume fraction = 0.499589  Min(alpha.water) = -8.81735e-05  Max(alpha.water) = 1
DICPCG:  Solving for p_rgh, Initial residual = 0.00443075, Final residual = 0.000215382, No Iterations 6
time step continuity errors : sum local = 2.62225e-06, global = 4.68313e-10, cumulative = -4.45342e-08
DICPCG:  Solving for p_rgh, Initial residual = 0.000724503, Final residual = 9.2894e-08, No Iterations 234
time step continuity errors : sum local = 1.12978e-09, global = -1.4652e-12, cumulative = -4.45357e-08
ExecutionTime = 321.99 s  ClockTime = 328 s

Courant Number mean: 0.0127093 max: 1.00171
Interface Courant Number mean: 0.00107076 max: 0.744059
deltaT = 1.74776e-05
Time = 0.00273784

smoothSolver:  Solving for alpha.water, Initial residual = 8.78786e-05, Final residual = 7.80622e-09, No Iterations 2
Phase-1 volume fraction = 0.499581  Min(alpha.water) = -7.12118e-07  Max(alpha.water) = 1
MULES: Correcting alpha.water
MULES: Correcting alpha.water
Phase-1 volume fraction = 0.499581  Min(alpha.water) = -0.000165293  Max(alpha.water) = 1
DICPCG:  Solving for p_rgh, Initial residual = 0.00427008, Final residual = 0.000183875, No Iterations 4
time step continuity errors : sum local = 1.96823e-06, global = 9.0816e-10, cumulative = -4.36275e-08
DICPCG:  Solving for p_rgh, Initial residual = 0.000714026, Final residual = 9.82263e-08, No Iterations 233
time step continuity errors : sum local = 1.05047e-09, global = 2.1713e-11, cumulative = -4.36058e-08
ExecutionTime = 324.93 s  ClockTime = 330 s

Courant Number mean: 0.0120233 max: 0.943248
Interface Courant Number mean: 0.000995721 max: 0.696732
deltaT = 1.74776e-05
Time = 0.00275531

smoothSolver:  Solving for alpha.water, Initial residual = 8.80477e-05, Final residual = 7.79934e-09, No Iterations 2
Phase-1 volume fraction = 0.499574  Min(alpha.water) = -7.11361e-07  Max(alpha.water) = 1
MULES: Correcting alpha.water
MULES: Correcting alpha.water
Phase-1 volume fraction = 0.499574  Min(alpha.water) = -8.77844e-05  Max(alpha.water) = 1
DICPCG:  Solving for p_rgh, Initial residual = 0.00440721, Final residual = 0.000142394, No Iterations 4
time step continuity errors : sum local = 1.53078e-06, global = 1.72262e-09, cumulative = -4.18832e-08
DICPCG:  Solving for p_rgh, Initial residual = 0.000739883, Final residual = 9.60351e-08, No Iterations 234
time step continuity errors : sum local = 1.03136e-09, global = -5.74035e-11, cumulative = -4.19406e-08
ExecutionTime = 327.66 s  ClockTime = 333 s

Courant Number mean: 0.0121385 max: 0.950622
Interface Courant Number mean: 0.00099835 max: 0.695393
deltaT = 1.74776e-05
Time = 0.00277279

smoothSolver:  Solving for alpha.water, Initial residual = 8.83537e-05, Final residual = 7.85186e-09, No Iterations 2
Phase-1 volume fraction = 0.499567  Min(alpha.water) = -7.10325e-07  Max(alpha.water) = 1
MULES: Correcting alpha.water
MULES: Correcting alpha.water
Phase-1 volume fraction = 0.499567  Min(alpha.water) = -0.000267594  Max(alpha.water) = 1
DICPCG:  Solving for p_rgh, Initial residual = 0.00441033, Final residual = 0.000205709, No Iterations 4
time step continuity errors : sum local = 2.20157e-06, global = 3.92361e-09, cumulative = -3.8017e-08
DICPCG:  Solving for p_rgh, Initial residual = 0.000713044, Final residual = 9.89674e-08, No Iterations 200
time step continuity errors : sum local = 1.0581e-09, global = -6.02336e-12, cumulative = -3.8023e-08
ExecutionTime = 330.4 s  ClockTime = 336 s

Courant Number mean: 0.0122498 max: 0.951048
Interface Courant Number mean: 0.000997635 max: 0.692389
deltaT = 1.74776e-05
Time = 0.00279027

smoothSolver:  Solving for alpha.water, Initial residual = 8.8552e-05, Final residual = 7.83231e-09, No Iterations 2
Phase-1 volume fraction = 0.499559  Min(alpha.water) = -7.09018e-07  Max(alpha.water) = 1
MULES: Correcting alpha.water
MULES: Correcting alpha.water
Phase-1 volume fraction = 0.499559  Min(alpha.water) = -0.000126053  Max(alpha.water) = 1
DICPCG:  Solving for p_rgh, Initial residual = 0.00480888, Final residual = 0.00021033, No Iterations 4
time step continuity errors : sum local = 2.25346e-06, global = 1.60485e-09, cumulative = -3.64182e-08
DICPCG:  Solving for p_rgh, Initial residual = 0.000707402, Final residual = 9.57579e-08, No Iterations 231
time step continuity errors : sum local = 1.02484e-09, global = 7.74699e-12, cumulative = -3.64104e-08
ExecutionTime = 333.46 s  ClockTime = 339 s

Courant Number mean: 0.0123583 max: 0.94561
Interface Courant Number mean: 0.00103523 max: 0.685526
deltaT = 1.74776e-05
Time = 0.00280775

smoothSolver:  Solving for alpha.water, Initial residual = 8.85616e-05, Final residual = 7.75794e-09, No Iterations 2
Phase-1 volume fraction = 0.499552  Min(alpha.water) = -7.07446e-07  Max(alpha.water) = 1
MULES: Correcting alpha.water
MULES: Correcting alpha.water
Phase-1 volume fraction = 0.499552  Min(alpha.water) = -9.65381e-05  Max(alpha.water) = 1
DICPCG:  Solving for p_rgh, Initial residual = 0.00475142, Final residual = 0.000228567, No Iterations 3
time step continuity errors : sum local = 2.44611e-06, global = -4.9991e-09, cumulative = -4.14095e-08
DICPCG:  Solving for p_rgh, Initial residual = 0.000753002, Final residual = 9.3216e-08, No Iterations 236
time step continuity errors : sum local = 9.96566e-10, global = -2.82427e-11, cumulative = -4.14378e-08
ExecutionTime = 336.57 s  ClockTime = 342 s

Courant Number mean: 0.0124738 max: 0.940231
Interface Courant Number mean: 0.00101772 max: 0.771399
deltaT = 1.74776e-05
Time = 0.00282522

smoothSolver:  Solving for alpha.water, Initial residual = 8.8378e-05, Final residual = 7.63811e-09, No Iterations 2
Phase-1 volume fraction = 0.499545  Min(alpha.water) = -7.05622e-07  Max(alpha.water) = 1
MULES: Correcting alpha.water
MULES: Correcting alpha.water
Phase-1 volume fraction = 0.499545  Min(alpha.water) = -0.000110813  Max(alpha.water) = 1
DICPCG:  Solving for p_rgh, Initial residual = 0.00450642, Final residual = 0.000183692, No Iterations 4
time step continuity errors : sum local = 1.95817e-06, global = 4.23477e-09, cumulative = -3.7203e-08
DICPCG:  Solving for p_rgh, Initial residual = 0.00074059, Final residual = 9.91959e-08, No Iterations 232
time step continuity errors : sum local = 1.05669e-09, global = -2.74036e-11, cumulative = -3.72304e-08
ExecutionTime = 339.96 s  ClockTime = 346 s

Courant Number mean: 0.0125922 max: 0.944137
Interface Courant Number mean: 0.00101638 max: 0.776305
deltaT = 1.74776e-05
Time = 0.0028427

smoothSolver:  Solving for alpha.water, Initial residual = 8.84228e-05, Final residual = 7.633e-09, No Iterations 2
Phase-1 volume fraction = 0.499537  Min(alpha.water) = -7.03563e-07  Max(alpha.water) = 1
MULES: Correcting alpha.water
MULES: Correcting alpha.water
Phase-1 volume fraction = 0.499537  Min(alpha.water) = -0.000110094  Max(alpha.water) = 1
DICPCG:  Solving for p_rgh, Initial residual = 0.00442883, Final residual = 0.000208318, No Iterations 4
time step continuity errors : sum local = 2.21902e-06, global = 3.31691e-09, cumulative = -3.39135e-08
DICPCG:  Solving for p_rgh, Initial residual = 0.000722232, Final residual = 9.85854e-08, No Iterations 234
time step continuity errors : sum local = 1.0493e-09, global = -1.83372e-11, cumulative = -3.39318e-08
ExecutionTime = 343.12 s  ClockTime = 349 s

Courant Number mean: 0.0127027 max: 0.940973
Interface Courant Number mean: 0.00101694 max: 0.733194
deltaT = 1.74776e-05
Time = 0.00286018

smoothSolver:  Solving for alpha.water, Initial residual = 8.87167e-05, Final residual = 7.63136e-09, No Iterations 2
Phase-1 volume fraction = 0.49953  Min(alpha.water) = -7.01276e-07  Max(alpha.water) = 1
MULES: Correcting alpha.water
MULES: Correcting alpha.water
Phase-1 volume fraction = 0.49953  Min(alpha.water) = -0.00015357  Max(alpha.water) = 1
DICPCG:  Solving for p_rgh, Initial residual = 0.004687, Final residual = 0.000171685, No Iterations 4
time step continuity errors : sum local = 1.83366e-06, global = -6.33532e-10, cumulative = -3.45654e-08
DICPCG:  Solving for p_rgh, Initial residual = 0.000716105, Final residual = 9.91973e-08, No Iterations 236
time step continuity errors : sum local = 1.05801e-09, global = -3.39639e-11, cumulative = -3.45993e-08
ExecutionTime = 345.84 s  ClockTime = 352 s

Courant Number mean: 0.0128172 max: 0.933431
Interface Courant Number mean: 0.00103519 max: 0.739037
deltaT = 1.74776e-05
Time = 0.00287766

smoothSolver:  Solving for alpha.water, Initial residual = 8.87495e-05, Final residual = 7.66253e-09, No Iterations 2
Phase-1 volume fraction = 0.499522  Min(alpha.water) = -6.98751e-07  Max(alpha.water) = 1
MULES: Correcting alpha.water
MULES: Correcting alpha.water
Phase-1 volume fraction = 0.499522  Min(alpha.water) = -0.000208011  Max(alpha.water) = 1
DICPCG:  Solving for p_rgh, Initial residual = 0.00455946, Final residual = 0.000190079, No Iterations 4
time step continuity errors : sum local = 2.02398e-06, global = 2.93312e-09, cumulative = -3.16662e-08
DICPCG:  Solving for p_rgh, Initial residual = 0.000714048, Final residual = 9.97144e-08, No Iterations 235
time step continuity errors : sum local = 1.06054e-09, global = -1.80393e-11, cumulative = -3.16842e-08
ExecutionTime = 348.85 s  ClockTime = 355 s

Courant Number mean: 0.0129341 max: 0.922992
Interface Courant Number mean: 0.00104531 max: 0.747428
deltaT = 1.74776e-05
Time = 0.00289513

smoothSolver:  Solving for alpha.water, Initial residual = 8.87184e-05, Final residual = 7.66328e-09, No Iterations 2
Phase-1 volume fraction = 0.499515  Min(alpha.water) = -6.95996e-07  Max(alpha.water) = 1
MULES: Correcting alpha.water
MULES: Correcting alpha.water
Phase-1 volume fraction = 0.499515  Min(alpha.water) = -0.000111795  Max(alpha.water) = 1
DICPCG:  Solving for p_rgh, Initial residual = 0.00472517, Final residual = 0.000196716, No Iterations 4
time step continuity errors : sum local = 2.08775e-06, global = 3.11492e-09, cumulative = -2.85693e-08
DICPCG:  Solving for p_rgh, Initial residual = 0.000707416, Final residual = 9.9699e-08, No Iterations 237
time step continuity errors : sum local = 1.0569e-09, global = -1.15356e-11, cumulative = -2.85809e-08
ExecutionTime = 351.76 s  ClockTime = 358 s

Courant Number mean: 0.0130468 max: 0.921834
Interface Courant Number mean: 0.00104758 max: 0.754166
deltaT = 1.74776e-05
Time = 0.00291261

smoothSolver:  Solving for alpha.water, Initial residual = 8.8915e-05, Final residual = 7.61758e-09, No Iterations 2
Phase-1 volume fraction = 0.499507  Min(alpha.water) = -6.93016e-07  Max(alpha.water) = 1
MULES: Correcting alpha.water
MULES: Correcting alpha.water
Phase-1 volume fraction = 0.499507  Min(alpha.water) = -0.000136778  Max(alpha.water) = 1
DICPCG:  Solving for p_rgh, Initial residual = 0.00477812, Final residual = 0.000188251, No Iterations 4
time step continuity errors : sum local = 1.9973e-06, global = 6.61136e-10, cumulative = -2.79197e-08
DICPCG:  Solving for p_rgh, Initial residual = 0.000710489, Final residual = 9.56994e-08, No Iterations 228
time step continuity errors : sum local = 1.01429e-09, global = 1.79316e-11, cumulative = -2.79018e-08
ExecutionTime = 354.48 s  ClockTime = 360 s

Courant Number mean: 0.0131591 max: 0.92037
Interface Courant Number mean: 0.00104459 max: 0.754837
deltaT = 1.74776e-05
Time = 0.00293009

smoothSolver:  Solving for alpha.water, Initial residual = 8.9488e-05, Final residual = 7.54329e-09, No Iterations 2
Phase-1 volume fraction = 0.4995  Min(alpha.water) = -6.89819e-07  Max(alpha.water) = 1
MULES: Correcting alpha.water
MULES: Correcting alpha.water
Phase-1 volume fraction = 0.4995  Min(alpha.water) = -0.000166847  Max(alpha.water) = 1
DICPCG:  Solving for p_rgh, Initial residual = 0.00454045, Final residual = 0.000173124, No Iterations 4
time step continuity errors : sum local = 1.83475e-06, global = 2.15995e-09, cumulative = -2.57418e-08
DICPCG:  Solving for p_rgh, Initial residual = 0.000737095, Final residual = 9.77187e-08, No Iterations 229
time step continuity errors : sum local = 1.03439e-09, global = -1.51316e-11, cumulative = -2.5757e-08
ExecutionTime = 357.38 s  ClockTime = 363 s

Courant Number mean: 0.0132739 max: 0.914621
Interface Courant Number mean: 0.00103911 max: 0.75231
deltaT = 1.74776e-05
Time = 0.00294757

smoothSolver:  Solving for alpha.water, Initial residual = 9.00823e-05, Final residual = 7.51712e-09, No Iterations 2
Phase-1 volume fraction = 0.499492  Min(alpha.water) = -6.86407e-07  Max(alpha.water) = 1
MULES: Correcting alpha.water
MULES: Correcting alpha.water
Phase-1 volume fraction = 0.499492  Min(alpha.water) = -0.000181182  Max(alpha.water) = 1
DICPCG:  Solving for p_rgh, Initial residual = 0.00490495, Final residual = 0.000211372, No Iterations 4
time step continuity errors : sum local = 2.23954e-06, global = 2.57308e-09, cumulative = -2.31839e-08
DICPCG:  Solving for p_rgh, Initial residual = 0.000749464, Final residual = 9.65991e-08, No Iterations 224
time step continuity errors : sum local = 1.02228e-09, global = 9.76656e-12, cumulative = -2.31741e-08
ExecutionTime = 360.07 s  ClockTime = 366 s

Courant Number mean: 0.0133885 max: 0.9049
Interface Courant Number mean: 0.00106055 max: 0.748179
deltaT = 1.74776e-05
Time = 0.00296504

smoothSolver:  Solving for alpha.water, Initial residual = 9.06439e-05, Final residual = 7.5035e-09, No Iterations 2
Phase-1 volume fraction = 0.499484  Min(alpha.water) = -6.82789e-07  Max(alpha.water) = 1
MULES: Correcting alpha.water
MULES: Correcting alpha.water
Phase-1 volume fraction = 0.499484  Min(alpha.water) = -0.000144741  Max(alpha.water) = 1
DICPCG:  Solving for p_rgh, Initial residual = 0.00489182, Final residual = 0.000211985, No Iterations 4
time step continuity errors : sum local = 2.24411e-06, global = 7.7472e-10, cumulative = -2.23994e-08
DICPCG:  Solving for p_rgh, Initial residual = 0.000722404, Final residual = 9.65087e-08, No Iterations 195
time step continuity errors : sum local = 1.02052e-09, global = -1.80914e-12, cumulative = -2.24012e-08
ExecutionTime = 362.64 s  ClockTime = 369 s

Courant Number mean: 0.0134995 max: 0.896463
Interface Courant Number mean: 0.00105821 max: 0.743082
deltaT = 1.74776e-05
Time = 0.00298252

smoothSolver:  Solving for alpha.water, Initial residual = 9.08144e-05, Final residual = 7.46067e-09, No Iterations 2
Phase-1 volume fraction = 0.499477  Min(alpha.water) = -6.78971e-07  Max(alpha.water) = 1
MULES: Correcting alpha.water
MULES: Correcting alpha.water
Phase-1 volume fraction = 0.499477  Min(alpha.water) = -0.000128075  Max(alpha.water) = 1
DICPCG:  Solving for p_rgh, Initial residual = 0.00506532, Final residual = 0.00020003, No Iterations 4
time step continuity errors : sum local = 2.1176e-06, global = 6.14886e-10, cumulative = -2.17863e-08
DICPCG:  Solving for p_rgh, Initial residual = 0.000774036, Final residual = 9.6678e-08, No Iterations 231
time step continuity errors : sum local = 1.02236e-09, global = 2.76093e-13, cumulative = -2.17861e-08
ExecutionTime = 365.5 s  ClockTime = 371 s

Courant Number mean: 0.0136133 max: 0.891799
Interface Courant Number mean: 0.00106515 max: 0.718217
deltaT = 1.74776e-05
Time = 0.003

smoothSolver:  Solving for alpha.water, Initial residual = 9.064e-05, Final residual = 7.34068e-09, No Iterations 2
Phase-1 volume fraction = 0.499469  Min(alpha.water) = -6.74961e-07  Max(alpha.water) = 1
MULES: Correcting alpha.water
MULES: Correcting alpha.water
Phase-1 volume fraction = 0.499469  Min(alpha.water) = -0.000305801  Max(alpha.water) = 1
DICPCG:  Solving for p_rgh, Initial residual = 0.00510635, Final residual = 0.000178769, No Iterations 4
time step continuity errors : sum local = 1.89275e-06, global = 7.09735e-09, cumulative = -1.46887e-08
DICPCG:  Solving for p_rgh, Initial residual = 0.000768329, Final residual = 9.85504e-08, No Iterations 237
time step continuity errors : sum local = 1.04213e-09, global = -1.99152e-13, cumulative = -1.46889e-08
ExecutionTime = 370.92 s  ClockTime = 377 s

End

